Separated_merge_20260720.fds
Generated by PyroSim 2024.2.1120
2026年7月20日 20:51:34

-------------User Section (not generated by PyroSim)-------------

&RAMP ID='NUCLEAR_RAMP', T=0.000000, F=0.000000 /
&RAMP ID='NUCLEAR_RAMP', T=0.015484, F=0.026000 /
&RAMP ID='NUCLEAR_RAMP', T=0.030968, F=0.110000 /
&RAMP ID='NUCLEAR_RAMP', T=0.046452, F=0.230000 /
&RAMP ID='NUCLEAR_RAMP', T=0.061936, F=0.380000 /
&RAMP ID='NUCLEAR_RAMP', T=0.077420, F=0.565000 /
&RAMP ID='NUCLEAR_RAMP', T=0.092904, F=0.735000 /
&RAMP ID='NUCLEAR_RAMP', T=0.108389, F=0.855000 /
&RAMP ID='NUCLEAR_RAMP', T=0.123873, F=0.945000 /
&RAMP ID='NUCLEAR_RAMP', T=0.139357, F=0.980000 /
&RAMP ID='NUCLEAR_RAMP', T=0.154841, F=1.000000 /
&RAMP ID='NUCLEAR_RAMP', T=0.185809, F=0.935000 /
&RAMP ID='NUCLEAR_RAMP', T=0.216777, F=0.795000 /
&RAMP ID='NUCLEAR_RAMP', T=0.247745, F=0.630000 /
&RAMP ID='NUCLEAR_RAMP', T=0.278713, F=0.520000 /
&RAMP ID='NUCLEAR_RAMP', T=0.309682, F=0.430000 /
&RAMP ID='NUCLEAR_RAMP', T=0.340650, F=0.366000 /
&RAMP ID='NUCLEAR_RAMP', T=0.371618, F=0.320000 /
&RAMP ID='NUCLEAR_RAMP', T=0.402586, F=0.280000 /
&RAMP ID='NUCLEAR_RAMP', T=0.433554, F=0.245000 /
&RAMP ID='NUCLEAR_RAMP', T=0.464522, F=0.218000 /
&RAMP ID='NUCLEAR_RAMP', T=0.495490, F=0.195000 /
&RAMP ID='NUCLEAR_RAMP', T=0.526459, F=0.175000 /
&RAMP ID='NUCLEAR_RAMP', T=0.557427, F=0.158000 /
&RAMP ID='NUCLEAR_RAMP', T=0.588395, F=0.140000 /
&RAMP ID='NUCLEAR_RAMP', T=0.619363, F=0.126000 /
&RAMP ID='NUCLEAR_RAMP', T=0.696783, F=0.098000 /
&RAMP ID='NUCLEAR_RAMP', T=0.774204, F=0.082000 /
&RAMP ID='NUCLEAR_RAMP', T=0.851624, F=0.067000 /
&RAMP ID='NUCLEAR_RAMP', T=0.929045, F=0.061000 /
&RAMP ID='NUCLEAR_RAMP', T=1.006465, F=0.052000 /
&RAMP ID='NUCLEAR_RAMP', T=1.083885, F=0.046000 /
&RAMP ID='NUCLEAR_RAMP', T=1.238726, F=0.037000 /
&RAMP ID='NUCLEAR_RAMP', T=1.393567, F=0.031000 /
&RAMP ID='NUCLEAR_RAMP', T=1.548408, F=0.029000 /
&RAMP ID='NUCLEAR_RAMP', T=1.703248, F=0.027000 /
&RAMP ID='NUCLEAR_RAMP', T=1.858089, F=0.025000 /
&RAMP ID='NUCLEAR_RAMP', T=2.012930, F=0.024000 /
&RAMP ID='NUCLEAR_RAMP', T=2.167771, F=0.023000 /
&RAMP ID='NUCLEAR_RAMP', T=2.428185, F=0.000000 /
&RAMP ID='NUCLEAR_RAMP', T=2.4306,   F=0.0 /

--------------------PyroSim-generated Section--------------------

&HEAD CHID='Separated_merge_20260720'/
&TIME T_END=100.0/
&DUMP DT_RESTART=300.0, DT_SL3D=0.25/

&MESH ID='Mesh01', IJK=85,36,48, XB=-0.3,8.2,-1.9,1.7,-2.2,2.6/
&MESH ID='Mesh02', IJK=36,72,96, XB=8.2,10.1,-1.9,1.7,-2.2,2.6/

&SPEC ID='SFPE POLYURETHANE_GM27_fuel', FORMULA='C1.0H1.7O0.3N0.08'/

&REAC ID='SFPE POLYURETHANE_GM27',
      FYI='SFPE Handbook, 5th Edition, Tables A.38 and A.39',
      FUEL='SFPE POLYURETHANE_GM27_fuel',
      CO_YIELD=0.042,
      SOOT_YIELD=0.198,
      HEAT_OF_COMBUSTION=1.64E+4,
      RADIATIVE_FRACTION=0.537/

&MATL ID='EBLXW',
      SPECIFIC_HEAT=1.0,
      CONDUCTIVITY=0.35,
      DENSITY=2540.0,
      HEAT_OF_COMBUSTION=9000.0,
      N_REACTIONS=1,
      A=1.0E+7,
      E=1.2E+5/
&MATL ID='BXSSL',
      SPECIFIC_HEAT=1.46,
      CONDUCTIVITY=0.19,
      DENSITY=1190.0,
      HEAT_OF_COMBUSTION=2.52E+4,
      N_REACTIONS=1,
      A=3.0E+12,
      E=1.6E+5/
&MATL ID='NLZW',
      SPECIFIC_HEAT=1.7,
      CONDUCTIVITY=0.25,
      DENSITY=1140.0,
      HEAT_OF_COMBUSTION=2.8E+4,
      N_REACTIONS=1,
      A=3.6E+9,
      E=1.65E+5/
&MATL ID='HYBLXW',
      SPECIFIC_HEAT=1.0,
      CONDUCTIVITY=0.35,
      DENSITY=2540.0,
      HEAT_OF_COMBUSTION=9000.0,
      N_REACTIONS=1,
      A=1.0E+7,
      E=1.2E+5/
&MATL ID='LHJ2024',
      SPECIFIC_HEAT=0.875,
      CONDUCTIVITY=121.1,
      DENSITY=2780.0/
&MATL ID='LHJ5052',
      SPECIFIC_HEAT=0.88,
      CONDUCTIVITY=138.0,
      DENSITY=2680.0/
&MATL ID='LHJ7075',
      SPECIFIC_HEAT=0.96,
      CONDUCTIVITY=130.0,
      DENSITY=2810.0,
      EMISSIVITY=0.1/
&MATL ID='LHJ6061',
      SPECIFIC_HEAT=896.0,
      CONDUCTIVITY=167.0,
      DENSITY=2700.0/
&MATL ID='PVCSL',
      SPECIFIC_HEAT=0.84,
      CONDUCTIVITY=0.19,
      DENSITY=1449.0,
      HEAT_OF_COMBUSTION=1.795E+4,
      N_REACTIONS=1,
      A=1.35E+14,
      E=2.19E+5/
&MATL ID='CRXJ',
      SPECIFIC_HEAT=1.12,
      CONDUCTIVITY=0.19,
      DENSITY=1500.0,
      HEAT_OF_COMBUSTION=2.952E+4,
      N_REACTIONS=1,
      A=2.0E+11,
      E=1.48E+5/

&SURF ID='E-玻璃纤维',
      RGB=153,153,153,
      TRANSPARENCY=0.729412,
      MATL_ID(1,1)='EBLXW',
      MATL_MASS_FRACTION(1,1)=1.0,
      THICKNESS(1)=0.1,
      EXTERNAL_FLUX=1000,
      RAMP_EF='NUCLEAR_RAMP'/
&SURF ID='丙烯酸塑料',
      RGB=146,202,166,
      MATL_ID(1,1)='BXSSL',
      MATL_MASS_FRACTION(1,1)=1.0,
      THICKNESS(1)=0.025,
      EXTERNAL_FLUX=1000,
      RAMP_EF='NUCLEAR_RAMP'/
&SURF ID='尼龙织物_床垫',
      RGB=146,26,223,
      TRANSPARENCY=0.886275,
      MATL_ID(1,1)='NLZW',
      MATL_MASS_FRACTION(1,1)=1.0,
      THICKNESS(1)=0.1,
      EXTERNAL_FLUX=1000,
      RAMP_EF='NUCLEAR_RAMP'/
&SURF ID='尼龙织物_窗帘3mm',
      RGB=146,26,223,
      TRANSPARENCY=0.886275,
      MATL_ID(1,1)='NLZW',
      MATL_MASS_FRACTION(1,1)=1.0,
      THICKNESS(1)=3.0E-3,
      EXTERNAL_FLUX=1000,
      RAMP_EF='NUCLEAR_RAMP'/
&SURF ID='环氧玻璃纤维',
      RGB=255,153,153,
      TRANSPARENCY=0.866667,
      MATL_ID(1,1)='HYBLXW',
      MATL_MASS_FRACTION(1,1)=1.0,
      THICKNESS(1)=6.0E-3,
      EXTERNAL_FLUX=1000,
      RAMP_EF='NUCLEAR_RAMP'/
&SURF ID='聚氨酯泡沫',
      RGB=146,234,117,
      TRANSPARENCY=0.827451,
      HRRPUA=1000.0,
      TMP_FRONT=20.0,
      EXTERNAL_FLUX=1000,
      RAMP_EF='NUCLEAR_RAMP'/
&SURF ID='铝合金2024',
      RGB=153,153,153,
      TRANSPARENCY=0.54902,
      MATL_ID(1,1)='LHJ2024',
      MATL_MASS_FRACTION(1,1)=1.0,
      THICKNESS(1)=0.1/
&SURF ID='铝合金5052',
      RGB=255,255,51,
      TRANSPARENCY=0.827451,
      MATL_ID(1,1)='LHJ5052',
      MATL_MASS_FRACTION(1,1)=1.0,
      THICKNESS(1)=1.5E-3/
&SURF ID='铝合金7075',
      RGB=153,153,0,
      TRANSPARENCY=0.819608,
      MATL_ID(1,1)='LHJ7075',
      MATL_MASS_FRACTION(1,1)=1.0,
      THICKNESS(1)=0.1/
&SURF ID='铝合金7075_氧气瓶',
      RGB=0,255,153,
      MATL_ID(1,1)='LHJ7075',
      MATL_MASS_FRACTION(1,1)=1.0,
      THICKNESS(1)=5.0E-3/
&SURF ID='导航子系统',
      RGB=204,255,51,
      MATL_ID(1,1)='LHJ6061',
      MATL_MASS_FRACTION(1,1)=1.0,
      THICKNESS(1)=3.0E-3/
&SURF ID='任务子系统',
      RGB=204,255,51,
      MATL_ID(1,1)='LHJ6061',
      MATL_MASS_FRACTION(1,1)=1.0,
      THICKNESS(1)=3.0E-3/
&SURF ID='显示子系统',
      RGB=204,255,51,
      MATL_ID(1,1)='LHJ6061',
      MATL_MASS_FRACTION(1,1)=1.0,
      THICKNESS(1)=3.0E-3/
&SURF ID='通信子系统',
      RGB=204,255,51,
      MATL_ID(1,1)='LHJ6061',
      MATL_MASS_FRACTION(1,1)=1.0,
      THICKNESS(1)=3.0E-3/
&SURF ID='电池',
      RGB=204,255,51,
      MATL_ID(1,1)='LHJ6061',
      MATL_MASS_FRACTION(1,1)=1.0,
      THICKNESS(1)=3.0E-3/
&SURF ID='电力传输子系统',
      RGB=204,255,51,
      HRRPUA=200.0,
      IGNITION_TEMPERATURE=468.6,
      MATL_ID(1,1)='PVCSL',
      MATL_MASS_FRACTION(1,1)=1.0,
      THICKNESS(1)=1.0E-3/
&SURF ID='操纵子系统',
      RGB=204,255,51,
      HRRPUA=180.0,
      IGNITION_TEMPERATURE=410.0,
      MATL_ID(1,1)='CRXJ',
      MATL_MASS_FRACTION(1,1)=1.0,
      THICKNESS(1)=2.0E-3/

&OBST ID='A01.stl', XB=2.775558E-17,0.1,-0.1,0.1,-0.2,-0.2, SURF_ID='E-玻璃纤维'/ 
&OBST ID='A01.stl', XB=2.775558E-17,0.1,-0.1,0.1,0.2,0.2, SURF_ID='E-玻璃纤维'/ 
&OBST ID='A01.stl', XB=0.1,0.2,-0.1,0.1,-0.3,-0.3, SURF_ID='E-玻璃纤维'/ 
&OBST ID='A01.stl', XB=0.1,0.2,-0.2,-0.1,-0.2,-0.2, SURF_ID='E-玻璃纤维'/ 
&OBST ID='A01.stl', XB=0.1,0.2,0.1,0.2,-0.2,-0.2, SURF_ID='E-玻璃纤维'/ 
&OBST ID='A01.stl', XB=0.1,0.2,-0.2,-0.1,0.2,0.2, SURF_ID='E-玻璃纤维'/ 
&OBST ID='A01.stl', XB=0.1,0.2,0.1,0.2,0.2,0.2, SURF_ID='E-玻璃纤维'/ 
&OBST ID='A01.stl', XB=0.1,0.2,-0.1,0.1,0.3,0.3, SURF_ID='E-玻璃纤维'/ 
&OBST ID='A01.stl', XB=0.2,0.3,-0.2,-0.1,-0.3,-0.3, SURF_ID='E-玻璃纤维'/ 
&OBST ID='A01.stl', XB=0.2,0.3,0.1,0.2,-0.3,-0.3, SURF_ID='E-玻璃纤维'/ 
&OBST ID='A01.stl', XB=0.2,0.3,-0.3,-0.2,-0.2,-0.2, SURF_ID='E-玻璃纤维'/ 
&OBST ID='A01.stl', XB=0.2,0.3,0.2,0.3,-0.2,-0.2, SURF_ID='E-玻璃纤维'/ 
&OBST ID='A01.stl', XB=0.2,0.3,-0.3,-0.2,0.2,0.2, SURF_ID='E-玻璃纤维'/ 
&OBST ID='A01.stl', XB=0.2,0.3,0.2,0.3,0.2,0.2, SURF_ID='E-玻璃纤维'/ 
&OBST ID='A01.stl', XB=0.2,0.3,-0.2,-0.1,0.3,0.3, SURF_ID='E-玻璃纤维'/ 
&OBST ID='A01.stl', XB=0.2,0.3,0.1,0.2,0.3,0.3, SURF_ID='E-玻璃纤维'/ 
&OBST ID='A01.stl', XB=0.2,0.4,-0.1,0.1,-0.4,-0.4, SURF_ID='E-玻璃纤维'/ 
&OBST ID='A01.stl', XB=0.2,0.4,-0.1,0.1,0.4,0.4, SURF_ID='E-玻璃纤维'/ 
&OBST ID='A01.stl', XB=0.3,0.4,-0.2,-0.1,-0.4,-0.4, SURF_ID='E-玻璃纤维'/ 
&OBST ID='A01.stl', XB=0.3,0.4,0.1,0.2,-0.4,-0.4, SURF_ID='E-玻璃纤维'/ 
&OBST ID='A01.stl', XB=0.3,0.4,-0.3,-0.2,-0.3,-0.3, SURF_ID='E-玻璃纤维'/ 
&OBST ID='A01.stl', XB=0.3,0.4,0.2,0.3,-0.3,-0.3, SURF_ID='E-玻璃纤维'/ 
&OBST ID='A01.stl', XB=0.3,0.4,-0.4,-0.3,-0.2,-0.2, SURF_ID='E-玻璃纤维'/ 
&OBST ID='A01.stl', XB=0.3,0.4,0.3,0.4,-0.2,-0.2, SURF_ID='E-玻璃纤维'/ 
&OBST ID='A01.stl', XB=0.3,0.4,-0.4,-0.3,0.2,0.2, SURF_ID='E-玻璃纤维'/ 
&OBST ID='A01.stl', XB=0.3,0.4,0.3,0.4,0.2,0.2, SURF_ID='E-玻璃纤维'/ 
&OBST ID='A01.stl', XB=0.3,0.4,-0.3,-0.2,0.3,0.3, SURF_ID='E-玻璃纤维'/ 
&OBST ID='A01.stl', XB=0.3,0.4,0.2,0.3,0.3,0.3, SURF_ID='E-玻璃纤维'/ 
&OBST ID='A01.stl', XB=0.3,0.4,-0.2,-0.1,0.4,0.4, SURF_ID='E-玻璃纤维'/ 
&OBST ID='A01.stl', XB=0.3,0.4,0.1,0.2,0.4,0.4, SURF_ID='E-玻璃纤维'/ 
&OBST ID='A01.stl', XB=0.4,0.5,-0.3,-0.2,-0.4,-0.4, SURF_ID='E-玻璃纤维'/ 
&OBST ID='A01.stl', XB=0.4,0.5,0.2,0.3,-0.4,-0.4, SURF_ID='E-玻璃纤维'/ 
&OBST ID='A01.stl', XB=0.4,0.5,-0.4,-0.3,-0.3,-0.3, SURF_ID='E-玻璃纤维'/ 
&OBST ID='A01.stl', XB=0.4,0.5,0.3,0.4,-0.3,-0.3, SURF_ID='E-玻璃纤维'/ 
&OBST ID='A01.stl', XB=0.4,0.5,-0.5,-0.4,-0.1,-0.1, SURF_ID='E-玻璃纤维'/ 
&OBST ID='A01.stl', XB=0.4,0.5,0.4,0.5,-0.1,-0.1, SURF_ID='E-玻璃纤维'/ 
&OBST ID='A01.stl', XB=0.4,0.5,-0.5,-0.4,0.1,0.1, SURF_ID='E-玻璃纤维'/ 
&OBST ID='A01.stl', XB=0.4,0.5,0.4,0.5,0.1,0.1, SURF_ID='E-玻璃纤维'/ 
&OBST ID='A01.stl', XB=0.4,0.5,-0.4,-0.3,0.3,0.3, SURF_ID='E-玻璃纤维'/ 
&OBST ID='A01.stl', XB=0.4,0.5,0.3,0.4,0.3,0.3, SURF_ID='E-玻璃纤维'/ 
&OBST ID='A01.stl', XB=0.4,0.5,-0.3,-0.2,0.4,0.4, SURF_ID='E-玻璃纤维'/ 
&OBST ID='A01.stl', XB=0.4,0.5,0.2,0.3,0.4,0.4, SURF_ID='E-玻璃纤维'/ 
&OBST ID='A01.stl', XB=0.4,0.5,-0.1,0.1,0.5,0.5, SURF_ID='E-玻璃纤维'/ 
&OBST ID='A01.stl', XB=0.4,0.6,-0.2,0.2,-0.5,-0.5, SURF_ID='E-玻璃纤维'/ 
&OBST ID='A01.stl', XB=0.4,0.6,-0.2,-0.1,0.5,0.5, SURF_ID='E-玻璃纤维'/ 
&OBST ID='A01.stl', XB=0.4,0.6,0.1,0.2,0.5,0.5, SURF_ID='E-玻璃纤维'/ 
&OBST ID='A01.stl', XB=0.5,0.6,-0.4,-0.3,-0.4,-0.4, SURF_ID='E-玻璃纤维'/ 
&OBST ID='A01.stl', XB=0.5,0.6,0.3,0.4,-0.4,-0.4, SURF_ID='E-玻璃纤维'/ 
&OBST ID='A01.stl', XB=0.5,0.6,-0.5,-0.4,-0.3,-0.3, SURF_ID='E-玻璃纤维'/ 
&OBST ID='A01.stl', XB=0.5,0.6,0.4,0.5,-0.3,-0.3, SURF_ID='E-玻璃纤维'/ 
&OBST ID='A01.stl', XB=0.5,0.6,-0.5,-0.4,0.3,0.3, SURF_ID='E-玻璃纤维'/ 
&OBST ID='A01.stl', XB=0.5,0.6,0.4,0.5,0.3,0.3, SURF_ID='E-玻璃纤维'/ 
&OBST ID='A01.stl', XB=0.5,0.6,-0.4,-0.3,0.4,0.4, SURF_ID='E-玻璃纤维'/ 
&OBST ID='A01.stl', XB=0.5,0.6,0.3,0.4,0.4,0.4, SURF_ID='E-玻璃纤维'/ 
&OBST ID='A01.stl', XB=0.5,0.6,-0.3,-0.2,0.5,0.5, SURF_ID='E-玻璃纤维'/ 
&OBST ID='A01.stl', XB=0.5,0.6,0.2,0.3,0.5,0.5, SURF_ID='E-玻璃纤维'/ 
&OBST ID='A01.stl', XB=0.5,0.7,-0.3,-0.2,-0.5,-0.5, SURF_ID='E-玻璃纤维'/ 
&OBST ID='A01.stl', XB=0.5,0.7,0.2,0.3,-0.5,-0.5, SURF_ID='E-玻璃纤维'/ 
&OBST ID='A01.stl', XB=0.5,0.7,-0.1,0.1,0.6,0.6, SURF_ID='E-玻璃纤维'/ 
&OBST ID='A01.stl', XB=0.6,0.7,-0.1,0.1,-0.6,-0.6, SURF_ID='E-玻璃纤维'/ 
&OBST ID='A01.stl', XB=0.6,0.7,-0.6,-0.5,-0.2,-0.2, SURF_ID='E-玻璃纤维'/ 
&OBST ID='A01.stl', XB=0.6,0.7,0.5,0.6,-0.2,-0.2, SURF_ID='E-玻璃纤维'/ 
&OBST ID='A01.stl', XB=0.6,0.7,-0.6,-0.5,0.2,0.2, SURF_ID='E-玻璃纤维'/ 
&OBST ID='A01.stl', XB=0.6,0.7,0.5,0.6,0.2,0.2, SURF_ID='E-玻璃纤维'/ 
&OBST ID='A01.stl', XB=0.6,0.7,-0.5,-0.4,0.4,0.4, SURF_ID='E-玻璃纤维'/ 
&OBST ID='A01.stl', XB=0.6,0.7,0.4,0.5,0.4,0.4, SURF_ID='E-玻璃纤维'/ 
&OBST ID='A01.stl', XB=0.6,0.7,-0.4,-0.3,0.5,0.5, SURF_ID='E-玻璃纤维'/ 
&OBST ID='A01.stl', XB=0.6,0.7,0.3,0.4,0.5,0.5, SURF_ID='E-玻璃纤维'/ 
&OBST ID='A01.stl', XB=0.6,0.7,-0.2,-0.1,0.6,0.6, SURF_ID='E-玻璃纤维'/ 
&OBST ID='A01.stl', XB=0.6,0.7,0.1,0.2,0.6,0.6, SURF_ID='E-玻璃纤维'/ 
&OBST ID='A01.stl', XB=0.6,0.8,-0.2,-0.1,-0.6,-0.6, SURF_ID='E-玻璃纤维'/ 
&OBST ID='A01.stl', XB=0.6,0.8,0.1,0.2,-0.6,-0.6, SURF_ID='E-玻璃纤维'/ 
&OBST ID='A01.stl', XB=0.6,0.8,-0.4,-0.3,-0.5,-0.5, SURF_ID='E-玻璃纤维'/ 
&OBST ID='A01.stl', XB=0.6,0.8,0.3,0.4,-0.5,-0.5, SURF_ID='E-玻璃纤维'/ 
&OBST ID='A01.stl', XB=0.6,0.8,-0.5,-0.4,-0.4,-0.4, SURF_ID='E-玻璃纤维'/ 
&OBST ID='A01.stl', XB=0.6,0.8,0.4,0.5,-0.4,-0.4, SURF_ID='E-玻璃纤维'/ 
&OBST ID='A01.stl', XB=0.6,0.8,-0.3,-0.2,0.6,0.6, SURF_ID='E-玻璃纤维'/ 
&OBST ID='A01.stl', XB=0.6,0.8,0.2,0.3,0.6,0.6, SURF_ID='E-玻璃纤维'/ 
&OBST ID='A01.stl', XB=0.7,0.8,-0.6,-0.5,-0.3,-0.3, SURF_ID='E-玻璃纤维'/ 
&OBST ID='A01.stl', XB=0.7,0.8,0.5,0.6,-0.3,-0.3, SURF_ID='E-玻璃纤维'/ 
&OBST ID='A01.stl', XB=0.7,0.8,-0.6,-0.5,0.4,0.4, SURF_ID='E-玻璃纤维'/ 
&OBST ID='A01.stl', XB=0.7,0.8,0.5,0.6,0.4,0.4, SURF_ID='E-玻璃纤维'/ 
&OBST ID='A01.stl', XB=0.7,0.8,-0.5,-0.4,0.5,0.5, SURF_ID='E-玻璃纤维'/ 
&OBST ID='A01.stl', XB=0.7,0.8,0.4,0.5,0.5,0.5, SURF_ID='E-玻璃纤维'/ 
&OBST ID='A01.stl', XB=0.7,0.8,-0.2,-0.1,0.7,0.7, SURF_ID='E-玻璃纤维'/ 
&OBST ID='A01.stl', XB=0.7,0.8,0.1,0.2,0.7,0.7, SURF_ID='E-玻璃纤维'/ 
&OBST ID='A01.stl', XB=0.7,0.9,-0.3,-0.2,-0.6,-0.6, SURF_ID='E-玻璃纤维'/ 
&OBST ID='A01.stl', XB=0.7,0.9,0.2,0.3,-0.6,-0.6, SURF_ID='E-玻璃纤维'/ 
&OBST ID='A01.stl', XB=0.7,0.9,-0.4,-0.3,0.6,0.6, SURF_ID='E-玻璃纤维'/ 
&OBST ID='A01.stl', XB=0.7,0.9,0.3,0.4,0.6,0.6, SURF_ID='E-玻璃纤维'/ 
&OBST ID='A01.stl', XB=0.7,1.0,-0.1,0.1,-0.7,-0.7, SURF_ID='E-玻璃纤维'/ 
&OBST ID='A01.stl', XB=0.7,1.3,-0.1,0.1,0.9,0.9, SURF_ID='E-玻璃纤维'/ 
&OBST ID='A01.stl', XB=0.8,0.9,-0.5,-0.4,-0.5,-0.5, SURF_ID='E-玻璃纤维'/ 
&OBST ID='A01.stl', XB=0.8,0.9,0.4,0.5,-0.5,-0.5, SURF_ID='E-玻璃纤维'/ 
&OBST ID='A01.stl', XB=0.8,0.9,-0.6,-0.5,-0.4,-0.4, SURF_ID='E-玻璃纤维'/ 
&OBST ID='A01.stl', XB=0.8,0.9,0.5,0.6,-0.4,-0.4, SURF_ID='E-玻璃纤维'/ 
&OBST ID='A01.stl', XB=0.8,0.9,-0.7,-0.6,-0.2,-0.2, SURF_ID='E-玻璃纤维'/ 
&OBST ID='A01.stl', XB=0.8,0.9,0.6,0.7,-0.2,-0.2, SURF_ID='E-玻璃纤维'/ 
&OBST ID='A01.stl', XB=0.8,0.9,-0.7,-0.6,0.3,0.3, SURF_ID='E-玻璃纤维'/ 
&OBST ID='A01.stl', XB=0.8,0.9,0.6,0.7,0.3,0.3, SURF_ID='E-玻璃纤维'/ 
&OBST ID='A01.stl', XB=0.8,0.9,-0.2,-0.1,0.8,0.8, SURF_ID='E-玻璃纤维'/ 
&OBST ID='A01.stl', XB=0.8,0.9,0.1,0.2,0.8,0.8, SURF_ID='E-玻璃纤维'/ 
&OBST ID='A01.stl', XB=0.8,1.0,-0.2,-0.1,-0.7,-0.7, SURF_ID='E-玻璃纤维'/ 
&OBST ID='A01.stl', XB=0.8,1.0,0.1,0.2,-0.7,-0.7, SURF_ID='E-玻璃纤维'/ 
&OBST ID='A01.stl', XB=0.8,1.0,-0.4,-0.3,-0.6,-0.6, SURF_ID='E-玻璃纤维'/ 
&OBST ID='A01.stl', XB=0.8,1.0,0.3,0.4,-0.6,-0.6, SURF_ID='E-玻璃纤维'/ 
&OBST ID='A01.stl', XB=0.8,1.0,-0.6,-0.5,0.5,0.5, SURF_ID='E-玻璃纤维'/ 
&OBST ID='A01.stl', XB=0.8,1.0,0.5,0.6,0.5,0.5, SURF_ID='E-玻璃纤维'/ 
&OBST ID='A01.stl', XB=0.8,1.0,-0.5,-0.4,0.6,0.6, SURF_ID='E-玻璃纤维'/ 
&OBST ID='A01.stl', XB=0.8,1.0,0.4,0.5,0.6,0.6, SURF_ID='E-玻璃纤维'/ 
&OBST ID='A01.stl', XB=0.8,1.0,-0.3,-0.2,0.7,0.7, SURF_ID='E-玻璃纤维'/ 
&OBST ID='A01.stl', XB=0.8,1.0,0.2,0.3,0.7,0.7, SURF_ID='E-玻璃纤维'/ 
&OBST ID='A01.stl', XB=0.9,1.0,-0.7,-0.6,-0.3,-0.3, SURF_ID='E-玻璃纤维'/ 
&OBST ID='A01.stl', XB=0.9,1.0,0.6,0.7,-0.3,-0.3, SURF_ID='E-玻璃纤维'/ 
&OBST ID='A01.stl', XB=0.9,1.0,-0.7,-0.6,0.4,0.4, SURF_ID='E-玻璃纤维'/ 
&OBST ID='A01.stl', XB=0.9,1.0,0.6,0.7,0.4,0.4, SURF_ID='E-玻璃纤维'/ 
&OBST ID='A01.stl', XB=0.9,1.1,-0.3,-0.2,-0.7,-0.7, SURF_ID='E-玻璃纤维'/ 
&OBST ID='A01.stl', XB=0.9,1.1,0.2,0.3,-0.7,-0.7, SURF_ID='E-玻璃纤维'/ 
&OBST ID='A01.stl', XB=0.9,1.1,-0.5,-0.4,-0.6,-0.6, SURF_ID='E-玻璃纤维'/ 
&OBST ID='A01.stl', XB=0.9,1.1,0.4,0.5,-0.6,-0.6, SURF_ID='E-玻璃纤维'/ 
&OBST ID='A01.stl', XB=0.9,1.1,-0.6,-0.5,-0.5,-0.5, SURF_ID='E-玻璃纤维'/ 
&OBST ID='A01.stl', XB=0.9,1.1,0.5,0.6,-0.5,-0.5, SURF_ID='E-玻璃纤维'/ 
&OBST ID='A01.stl', XB=0.9,1.1,-0.4,-0.3,0.7,0.7, SURF_ID='E-玻璃纤维'/ 
&OBST ID='A01.stl', XB=0.9,1.1,0.3,0.4,0.7,0.7, SURF_ID='E-玻璃纤维'/ 
&OBST ID='A01.stl', XB=0.9,1.3,-0.2,-0.1,0.9,0.9, SURF_ID='E-玻璃纤维'/ 
&OBST ID='A01.stl', XB=0.9,1.3,0.1,0.2,0.9,0.9, SURF_ID='E-玻璃纤维'/ 
&OBST ID='A01.stl', XB=1.0,1.1,-0.7,-0.6,-0.4,-0.4, SURF_ID='E-玻璃纤维'/ 
&OBST ID='A01.stl', XB=1.0,1.1,0.6,0.7,-0.4,-0.4, SURF_ID='E-玻璃纤维'/ 
&OBST ID='A01.stl', XB=1.0,1.1,-0.8,-0.7,-0.2,-0.2, SURF_ID='E-玻璃纤维'/ 
&OBST ID='A01.stl', XB=1.0,1.1,0.7,0.8,-0.2,-0.2, SURF_ID='E-玻璃纤维'/ 
&OBST ID='A01.stl', XB=1.0,1.1,-0.8,-0.7,0.3,0.3, SURF_ID='E-玻璃纤维'/ 
&OBST ID='A01.stl', XB=1.0,1.1,0.7,0.8,0.3,0.3, SURF_ID='E-玻璃纤维'/ 
&OBST ID='A01.stl', XB=1.0,1.1,-0.7,-0.6,0.5,0.5, SURF_ID='E-玻璃纤维'/ 
&OBST ID='A01.stl', XB=1.0,1.1,0.6,0.7,0.5,0.5, SURF_ID='E-玻璃纤维'/ 
&OBST ID='A01.stl', XB=1.0,1.1,-0.6,-0.5,0.6,0.6, SURF_ID='E-玻璃纤维'/ 
&OBST ID='A01.stl', XB=1.0,1.1,0.5,0.6,0.6,0.6, SURF_ID='E-玻璃纤维'/ 
&OBST ID='A01.stl', XB=1.0,1.2,-0.2,0.2,-0.8,-0.8, SURF_ID='E-玻璃纤维'/ 
&OBST ID='A01.stl', XB=1.0,1.2,-0.4,-0.3,-0.7,-0.7, SURF_ID='E-玻璃纤维'/ 
&OBST ID='A01.stl', XB=1.0,1.2,0.3,0.4,-0.7,-0.7, SURF_ID='E-玻璃纤维'/ 
&OBST ID='A01.stl', XB=1.0,1.2,-0.5,-0.4,0.7,0.7, SURF_ID='E-玻璃纤维'/ 
&OBST ID='A01.stl', XB=1.0,1.2,0.4,0.5,0.7,0.7, SURF_ID='E-玻璃纤维'/ 
&OBST ID='A01.stl', XB=1.0,1.2,-0.3,-0.2,0.8,0.8, SURF_ID='E-玻璃纤维'/ 
&OBST ID='A01.stl', XB=1.0,1.2,0.2,0.3,0.8,0.8, SURF_ID='E-玻璃纤维'/ 
&OBST ID='A01.stl', XB=1.1,1.2,-0.8,-0.7,-0.3,-0.3, SURF_ID='E-玻璃纤维'/ 
&OBST ID='A01.stl', XB=1.1,1.2,0.7,0.8,-0.3,-0.3, SURF_ID='E-玻璃纤维'/ 
&OBST ID='A01.stl', XB=1.1,1.2,-0.8,-0.7,0.4,0.4, SURF_ID='E-玻璃纤维'/ 
&OBST ID='A01.stl', XB=1.1,1.2,0.7,0.8,0.4,0.4, SURF_ID='E-玻璃纤维'/ 
&OBST ID='A01.stl', XB=1.1,1.2,0.3,0.4,0.8,0.8, SURF_ID='E-玻璃纤维'/ 
&OBST ID='A01.stl', XB=1.1,1.3,-0.3,-0.2,-0.8,-0.8, SURF_ID='E-玻璃纤维'/ 
&OBST ID='A01.stl', XB=1.1,1.3,0.2,0.3,-0.8,-0.8, SURF_ID='E-玻璃纤维'/ 
&OBST ID='A01.stl', XB=1.1,1.3,-0.5,-0.4,-0.7,-0.7, SURF_ID='E-玻璃纤维'/ 
&OBST ID='A01.stl', XB=1.1,1.3,0.4,0.5,-0.7,-0.7, SURF_ID='E-玻璃纤维'/ 
&OBST ID='A01.stl', XB=1.1,1.3,-0.6,-0.5,-0.6,-0.6, SURF_ID='E-玻璃纤维'/ 
&OBST ID='A01.stl', XB=1.1,1.3,0.5,0.6,-0.6,-0.6, SURF_ID='E-玻璃纤维'/ 
&OBST ID='A01.stl', XB=1.1,1.3,-0.7,-0.6,-0.5,-0.5, SURF_ID='E-玻璃纤维'/ 
&OBST ID='A01.stl', XB=1.1,1.3,0.6,0.7,-0.5,-0.5, SURF_ID='E-玻璃纤维'/ 
&OBST ID='A01.stl', XB=1.1,1.3,-0.7,-0.6,0.6,0.6, SURF_ID='E-玻璃纤维'/ 
&OBST ID='A01.stl', XB=1.1,1.3,0.6,0.7,0.6,0.6, SURF_ID='E-玻璃纤维'/ 
&OBST ID='A01.stl', XB=1.1,1.3,-0.6,-0.5,0.7,0.7, SURF_ID='E-玻璃纤维'/ 
&OBST ID='A01.stl', XB=1.1,1.3,0.5,0.6,0.7,0.7, SURF_ID='E-玻璃纤维'/ 
&OBST ID='A01.stl', XB=1.1,1.3,-0.4,-0.3,0.8,0.8, SURF_ID='E-玻璃纤维'/ 
&OBST ID='A01.stl', XB=1.2,1.3,-0.9,-0.8,-0.1,-0.1, SURF_ID='E-玻璃纤维'/ 
&OBST ID='A01.stl', XB=1.2,1.3,0.8,0.9,-0.1,-0.1, SURF_ID='E-玻璃纤维'/ 
&OBST ID='A01.stl', XB=1.2,1.3,-0.9,-0.8,0.2,0.2, SURF_ID='E-玻璃纤维'/ 
&OBST ID='A01.stl', XB=1.2,1.3,0.8,0.9,0.2,0.2, SURF_ID='E-玻璃纤维'/ 
&OBST ID='A01.stl', XB=1.2,1.3,-0.8,-0.7,0.5,0.5, SURF_ID='E-玻璃纤维'/ 
&OBST ID='A01.stl', XB=1.2,1.3,0.7,0.8,0.5,0.5, SURF_ID='E-玻璃纤维'/ 
&OBST ID='A01.stl', XB=1.2,1.3,-0.5,-0.4,0.8,0.8, SURF_ID='E-玻璃纤维'/ 
&OBST ID='A01.stl', XB=1.2,1.3,0.4,0.5,0.8,0.8, SURF_ID='E-玻璃纤维'/ 
&OBST ID='A01.stl', XB=1.2,1.4,-0.2,0.2,-0.9,-0.9, SURF_ID='E-玻璃纤维'/ 
&OBST ID='A01.stl', XB=1.2,1.4,-0.4,-0.3,-0.8,-0.8, SURF_ID='E-玻璃纤维'/ 
&OBST ID='A01.stl', XB=1.2,1.4,0.3,0.4,-0.8,-0.8, SURF_ID='E-玻璃纤维'/ 
&OBST ID='A01.stl', XB=1.2,1.4,-0.8,-0.7,-0.4,-0.4, SURF_ID='E-玻璃纤维'/ 
&OBST ID='A01.stl', XB=1.2,1.4,0.7,0.8,-0.4,-0.4, SURF_ID='E-玻璃纤维'/ 
&OBST ID='A01.stl', XB=1.2,1.4,-0.3,-0.2,0.9,0.9, SURF_ID='E-玻璃纤维'/ 
&OBST ID='A01.stl', XB=1.2,1.4,0.2,0.4,0.9,0.9, SURF_ID='E-玻璃纤维'/ 
&OBST ID='A01.stl', XB=1.3,1.4,-0.3,-0.2,-0.9,-0.9, SURF_ID='E-玻璃纤维'/ 
&OBST ID='A01.stl', XB=1.3,1.4,0.2,0.3,-0.9,-0.9, SURF_ID='E-玻璃纤维'/ 
&OBST ID='A01.stl', XB=1.3,1.4,-0.5,-0.4,-0.8,-0.8, SURF_ID='E-玻璃纤维'/ 
&OBST ID='A01.stl', XB=1.3,1.4,0.4,0.5,-0.8,-0.8, SURF_ID='E-玻璃纤维'/ 
&OBST ID='A01.stl', XB=1.3,1.4,-0.6,-0.5,-0.7,-0.7, SURF_ID='E-玻璃纤维'/ 
&OBST ID='A01.stl', XB=1.3,1.4,0.5,0.6,-0.7,-0.7, SURF_ID='E-玻璃纤维'/ 
&OBST ID='A01.stl', XB=1.3,1.4,-0.7,-0.6,-0.6,-0.6, SURF_ID='E-玻璃纤维'/ 
&OBST ID='A01.stl', XB=1.3,1.4,0.6,0.7,-0.6,-0.6, SURF_ID='E-玻璃纤维'/ 
&OBST ID='A01.stl', XB=1.3,1.4,-0.9,-0.8,-0.2,-0.2, SURF_ID='E-玻璃纤维'/ 
&OBST ID='A01.stl', XB=1.3,1.4,0.8,0.9,-0.2,-0.2, SURF_ID='E-玻璃纤维'/ 
&OBST ID='A01.stl', XB=1.3,1.4,-0.9,-0.8,0.4,0.4, SURF_ID='E-玻璃纤维'/ 
&OBST ID='A01.stl', XB=1.3,1.4,0.8,0.9,0.4,0.4, SURF_ID='E-玻璃纤维'/ 
&OBST ID='A01.stl', XB=1.3,1.4,-0.8,-0.7,0.6,0.6, SURF_ID='E-玻璃纤维'/ 
&OBST ID='A01.stl', XB=1.3,1.4,0.7,0.8,0.6,0.6, SURF_ID='E-玻璃纤维'/ 
&OBST ID='A01.stl', XB=1.3,1.4,-0.7,-0.6,0.7,0.7, SURF_ID='E-玻璃纤维'/ 
&OBST ID='A01.stl', XB=1.3,1.4,0.6,0.7,0.7,0.7, SURF_ID='E-玻璃纤维'/ 
&OBST ID='A01.stl', XB=1.3,1.4,-0.6,-0.5,0.8,0.8, SURF_ID='E-玻璃纤维'/ 
&OBST ID='A01.stl', XB=1.3,1.4,0.5,0.6,0.8,0.8, SURF_ID='E-玻璃纤维'/ 
&OBST ID='A01.stl', XB=1.3,1.4,-0.5,-0.3,0.9,0.9, SURF_ID='E-玻璃纤维'/ 
&OBST ID='A01.stl', XB=1.3,1.4,0.4,0.5,0.9,0.9, SURF_ID='E-玻璃纤维'/ 
&OBST ID='A01.stl', XB=1.3,1.4,-0.2,0.2,1.0,1.0, SURF_ID='E-玻璃纤维'/ 
&OBST ID='A01.stl', XB=2.775558E-17,0.1,-0.1,-0.1,-0.2,0.2, SURF_ID='E-玻璃纤维'/ 
&OBST ID='A01.stl', XB=2.775558E-17,0.1,0.1,0.1,-0.2,0.2, SURF_ID='E-玻璃纤维'/ 
&OBST ID='A01.stl', XB=0.1,0.2,-0.1,-0.1,-0.3,-0.2, SURF_ID='E-玻璃纤维'/ 
&OBST ID='A01.stl', XB=0.1,0.2,0.1,0.1,-0.3,-0.2, SURF_ID='E-玻璃纤维'/ 
&OBST ID='A01.stl', XB=0.1,0.2,-0.2,-0.2,-0.2,0.2, SURF_ID='E-玻璃纤维'/ 
&OBST ID='A01.stl', XB=0.1,0.2,0.2,0.2,-0.2,0.2, SURF_ID='E-玻璃纤维'/ 
&OBST ID='A01.stl', XB=0.1,0.2,-0.1,-0.1,0.2,0.3, SURF_ID='E-玻璃纤维'/ 
&OBST ID='A01.stl', XB=0.1,0.2,0.1,0.1,0.2,0.3, SURF_ID='E-玻璃纤维'/ 
&OBST ID='A01.stl', XB=0.2,0.3,-0.1,-0.1,-0.4,-0.3, SURF_ID='E-玻璃纤维'/ 
&OBST ID='A01.stl', XB=0.2,0.3,0.1,0.1,-0.4,-0.3, SURF_ID='E-玻璃纤维'/ 
&OBST ID='A01.stl', XB=0.2,0.3,-0.2,-0.2,-0.3,-0.2, SURF_ID='E-玻璃纤维'/ 
&OBST ID='A01.stl', XB=0.2,0.3,0.2,0.2,-0.3,-0.2, SURF_ID='E-玻璃纤维'/ 
&OBST ID='A01.stl', XB=0.2,0.3,-0.3,-0.3,-0.2,0.2, SURF_ID='E-玻璃纤维'/ 
&OBST ID='A01.stl', XB=0.2,0.3,0.3,0.3,-0.2,0.2, SURF_ID='E-玻璃纤维'/ 
&OBST ID='A01.stl', XB=0.2,0.3,-0.2,-0.2,0.2,0.3, SURF_ID='E-玻璃纤维'/ 
&OBST ID='A01.stl', XB=0.2,0.3,0.2,0.2,0.2,0.3, SURF_ID='E-玻璃纤维'/ 
&OBST ID='A01.stl', XB=0.2,0.3,-0.1,-0.1,0.3,0.4, SURF_ID='E-玻璃纤维'/ 
&OBST ID='A01.stl', XB=0.2,0.3,0.1,0.1,0.3,0.4, SURF_ID='E-玻璃纤维'/ 
&OBST ID='A01.stl', XB=0.3,0.4,-0.2,-0.2,-0.4,-0.3, SURF_ID='E-玻璃纤维'/ 
&OBST ID='A01.stl', XB=0.3,0.4,0.2,0.2,-0.4,-0.3, SURF_ID='E-玻璃纤维'/ 
&OBST ID='A01.stl', XB=0.3,0.4,-0.3,-0.3,-0.3,-0.2, SURF_ID='E-玻璃纤维'/ 
&OBST ID='A01.stl', XB=0.3,0.4,0.3,0.3,-0.3,-0.2, SURF_ID='E-玻璃纤维'/ 
&OBST ID='A01.stl', XB=0.3,0.4,-0.4,-0.4,-0.2,0.2, SURF_ID='E-玻璃纤维'/ 
&OBST ID='A01.stl', XB=0.3,0.4,0.4,0.4,-0.2,0.2, SURF_ID='E-玻璃纤维'/ 
&OBST ID='A01.stl', XB=0.3,0.4,-0.3,-0.3,0.2,0.3, SURF_ID='E-玻璃纤维'/ 
&OBST ID='A01.stl', XB=0.3,0.4,0.3,0.3,0.2,0.3, SURF_ID='E-玻璃纤维'/ 
&OBST ID='A01.stl', XB=0.3,0.4,-0.2,-0.2,0.3,0.4, SURF_ID='E-玻璃纤维'/ 
&OBST ID='A01.stl', XB=0.3,0.4,0.2,0.2,0.3,0.4, SURF_ID='E-玻璃纤维'/ 
&OBST ID='A01.stl', XB=0.4,0.5,-0.2,-0.2,-0.5,-0.4, SURF_ID='E-玻璃纤维'/ 
&OBST ID='A01.stl', XB=0.4,0.5,0.2,0.2,-0.5,-0.4, SURF_ID='E-玻璃纤维'/ 
&OBST ID='A01.stl', XB=0.4,0.5,-0.3,-0.3,-0.4,-0.3, SURF_ID='E-玻璃纤维'/ 
&OBST ID='A01.stl', XB=0.4,0.5,0.3,0.3,-0.4,-0.3, SURF_ID='E-玻璃纤维'/ 
&OBST ID='A01.stl', XB=0.4,0.5,-0.4,-0.4,-0.3,-0.1, SURF_ID='E-玻璃纤维'/ 
&OBST ID='A01.stl', XB=0.4,0.5,0.4,0.4,-0.3,-0.1, SURF_ID='E-玻璃纤维'/ 
&OBST ID='A01.stl', XB=0.4,0.5,-0.5,-0.5,-0.1,0.1, SURF_ID='E-玻璃纤维'/ 
&OBST ID='A01.stl', XB=0.4,0.5,0.5,0.5,-0.1,0.1, SURF_ID='E-玻璃纤维'/ 
&OBST ID='A01.stl', XB=0.4,0.5,-0.4,-0.4,0.1,0.3, SURF_ID='E-玻璃纤维'/ 
&OBST ID='A01.stl', XB=0.4,0.5,0.4,0.4,0.1,0.3, SURF_ID='E-玻璃纤维'/ 
&OBST ID='A01.stl', XB=0.4,0.5,-0.3,-0.3,0.3,0.4, SURF_ID='E-玻璃纤维'/ 
&OBST ID='A01.stl', XB=0.4,0.5,0.3,0.3,0.3,0.4, SURF_ID='E-玻璃纤维'/ 
&OBST ID='A01.stl', XB=0.4,0.5,-0.2,-0.2,0.4,0.5, SURF_ID='E-玻璃纤维'/ 
&OBST ID='A01.stl', XB=0.4,0.5,0.2,0.2,0.4,0.5, SURF_ID='E-玻璃纤维'/ 
&OBST ID='A01.stl', XB=0.5,0.6,-0.3,-0.3,-0.5,-0.4, SURF_ID='E-玻璃纤维'/ 
&OBST ID='A01.stl', XB=0.5,0.6,0.3,0.3,-0.5,-0.4, SURF_ID='E-玻璃纤维'/ 
&OBST ID='A01.stl', XB=0.5,0.6,-0.4,-0.4,-0.4,-0.3, SURF_ID='E-玻璃纤维'/ 
&OBST ID='A01.stl', XB=0.5,0.6,0.4,0.4,-0.4,-0.3, SURF_ID='E-玻璃纤维'/ 
&OBST ID='A01.stl', XB=0.5,0.6,-0.5,-0.5,-0.3,0.3, SURF_ID='E-玻璃纤维'/ 
&OBST ID='A01.stl', XB=0.5,0.6,0.5,0.5,-0.3,0.3, SURF_ID='E-玻璃纤维'/ 
&OBST ID='A01.stl', XB=0.5,0.6,-0.4,-0.4,0.3,0.4, SURF_ID='E-玻璃纤维'/ 
&OBST ID='A01.stl', XB=0.5,0.6,0.4,0.4,0.3,0.4, SURF_ID='E-玻璃纤维'/ 
&OBST ID='A01.stl', XB=0.5,0.6,-0.3,-0.3,0.4,0.5, SURF_ID='E-玻璃纤维'/ 
&OBST ID='A01.stl', XB=0.5,0.6,0.3,0.3,0.4,0.5, SURF_ID='E-玻璃纤维'/ 
&OBST ID='A01.stl', XB=0.5,0.6,-0.1,-0.1,0.5,0.6, SURF_ID='E-玻璃纤维'/ 
&OBST ID='A01.stl', XB=0.5,0.6,0.1,0.1,0.5,0.6, SURF_ID='E-玻璃纤维'/ 
&OBST ID='A01.stl', XB=0.6,0.7,-0.2,-0.2,-0.6,-0.5, SURF_ID='E-玻璃纤维'/ 
&OBST ID='A01.stl', XB=0.6,0.7,0.2,0.2,-0.6,-0.5, SURF_ID='E-玻璃纤维'/ 
&OBST ID='A01.stl', XB=0.6,0.7,-0.5,-0.5,-0.4,-0.2, SURF_ID='E-玻璃纤维'/ 
&OBST ID='A01.stl', XB=0.6,0.7,0.5,0.5,-0.4,-0.2, SURF_ID='E-玻璃纤维'/ 
&OBST ID='A01.stl', XB=0.6,0.7,-0.6,-0.6,-0.2,0.2, SURF_ID='E-玻璃纤维'/ 
&OBST ID='A01.stl', XB=0.6,0.7,0.6,0.6,-0.2,0.2, SURF_ID='E-玻璃纤维'/ 
&OBST ID='A01.stl', XB=0.6,0.7,-0.5,-0.5,0.2,0.4, SURF_ID='E-玻璃纤维'/ 
&OBST ID='A01.stl', XB=0.6,0.7,0.5,0.5,0.2,0.4, SURF_ID='E-玻璃纤维'/ 
&OBST ID='A01.stl', XB=0.6,0.7,-0.4,-0.4,0.4,0.5, SURF_ID='E-玻璃纤维'/ 
&OBST ID='A01.stl', XB=0.6,0.7,0.4,0.4,0.4,0.5, SURF_ID='E-玻璃纤维'/ 
&OBST ID='A01.stl', XB=0.6,0.7,-0.3,-0.3,0.5,0.6, SURF_ID='E-玻璃纤维'/ 
&OBST ID='A01.stl', XB=0.6,0.7,0.3,0.3,0.5,0.6, SURF_ID='E-玻璃纤维'/ 
&OBST ID='A01.stl', XB=0.6,0.8,-0.4,-0.4,-0.5,-0.4, SURF_ID='E-玻璃纤维'/ 
&OBST ID='A01.stl', XB=0.6,0.8,0.4,0.4,-0.5,-0.4, SURF_ID='E-玻璃纤维'/ 
&OBST ID='A01.stl', XB=0.7,0.8,-0.1,-0.1,-0.7,-0.6, SURF_ID='E-玻璃纤维'/ 
&OBST ID='A01.stl', XB=0.7,0.8,0.1,0.1,-0.7,-0.6, SURF_ID='E-玻璃纤维'/ 
&OBST ID='A01.stl', XB=0.7,0.8,-0.3,-0.3,-0.6,-0.5, SURF_ID='E-玻璃纤维'/ 
&OBST ID='A01.stl', XB=0.7,0.8,0.3,0.3,-0.6,-0.5, SURF_ID='E-玻璃纤维'/ 
&OBST ID='A01.stl', XB=0.7,0.8,-0.5,-0.5,-0.4,-0.3, SURF_ID='E-玻璃纤维'/ 
&OBST ID='A01.stl', XB=0.7,0.8,0.5,0.5,-0.4,-0.3, SURF_ID='E-玻璃纤维'/ 
&OBST ID='A01.stl', XB=0.7,0.8,-0.6,-0.6,-0.3,0.4, SURF_ID='E-玻璃纤维'/ 
&OBST ID='A01.stl', XB=0.7,0.8,0.6,0.6,-0.3,0.4, SURF_ID='E-玻璃纤维'/ 
&OBST ID='A01.stl', XB=0.7,0.8,-0.5,-0.5,0.4,0.5, SURF_ID='E-玻璃纤维'/ 
&OBST ID='A01.stl', XB=0.7,0.8,0.5,0.5,0.4,0.5, SURF_ID='E-玻璃纤维'/ 
&OBST ID='A01.stl', XB=0.7,0.8,-0.4,-0.4,0.5,0.6, SURF_ID='E-玻璃纤维'/ 
&OBST ID='A01.stl', XB=0.7,0.8,0.4,0.4,0.5,0.6, SURF_ID='E-玻璃纤维'/ 
&OBST ID='A01.stl', XB=0.7,0.8,-0.2,-0.2,0.6,0.7, SURF_ID='E-玻璃纤维'/ 
&OBST ID='A01.stl', XB=0.7,0.8,0.2,0.2,0.6,0.7, SURF_ID='E-玻璃纤维'/ 
&OBST ID='A01.stl', XB=0.7,0.8,-0.1,-0.1,0.7,0.9, SURF_ID='E-玻璃纤维'/ 
&OBST ID='A01.stl', XB=0.7,0.8,0.1,0.1,0.7,0.9, SURF_ID='E-玻璃纤维'/ 
&OBST ID='A01.stl', XB=0.8,0.9,-0.2,-0.2,-0.7,-0.6, SURF_ID='E-玻璃纤维'/ 
&OBST ID='A01.stl', XB=0.8,0.9,0.2,0.2,-0.7,-0.6, SURF_ID='E-玻璃纤维'/ 
&OBST ID='A01.stl', XB=0.8,0.9,-0.4,-0.4,-0.6,-0.5, SURF_ID='E-玻璃纤维'/ 
&OBST ID='A01.stl', XB=0.8,0.9,0.4,0.4,-0.6,-0.5, SURF_ID='E-玻璃纤维'/ 
&OBST ID='A01.stl', XB=0.8,0.9,-0.5,-0.5,-0.5,-0.4, SURF_ID='E-玻璃纤维'/ 
&OBST ID='A01.stl', XB=0.8,0.9,0.5,0.5,-0.5,-0.4, SURF_ID='E-玻璃纤维'/ 
&OBST ID='A01.stl', XB=0.8,0.9,-0.6,-0.6,-0.4,-0.2, SURF_ID='E-玻璃纤维'/ 
&OBST ID='A01.stl', XB=0.8,0.9,0.6,0.6,-0.4,-0.2, SURF_ID='E-玻璃纤维'/ 
&OBST ID='A01.stl', XB=0.8,0.9,-0.7,-0.7,-0.2,0.3, SURF_ID='E-玻璃纤维'/ 
&OBST ID='A01.stl', XB=0.8,0.9,0.7,0.7,-0.2,0.3, SURF_ID='E-玻璃纤维'/ 
&OBST ID='A01.stl', XB=0.8,0.9,-0.6,-0.6,0.3,0.5, SURF_ID='E-玻璃纤维'/ 
&OBST ID='A01.stl', XB=0.8,0.9,0.6,0.6,0.3,0.5, SURF_ID='E-玻璃纤维'/ 
&OBST ID='A01.stl', XB=0.8,0.9,-0.3,-0.3,0.6,0.7, SURF_ID='E-玻璃纤维'/ 
&OBST ID='A01.stl', XB=0.8,0.9,0.3,0.3,0.6,0.7, SURF_ID='E-玻璃纤维'/ 
&OBST ID='A01.stl', XB=0.8,0.9,-0.2,-0.2,0.7,0.8, SURF_ID='E-玻璃纤维'/ 
&OBST ID='A01.stl', XB=0.8,0.9,0.2,0.2,0.7,0.8, SURF_ID='E-玻璃纤维'/ 
&OBST ID='A01.stl', XB=0.8,0.9,-0.1,-0.1,0.8,0.9, SURF_ID='E-玻璃纤维'/ 
&OBST ID='A01.stl', XB=0.8,0.9,0.1,0.1,0.8,0.9, SURF_ID='E-玻璃纤维'/ 
&OBST ID='A01.stl', XB=0.8,1.0,-0.5,-0.5,0.5,0.6, SURF_ID='E-玻璃纤维'/ 
&OBST ID='A01.stl', XB=0.8,1.0,0.5,0.5,0.5,0.6, SURF_ID='E-玻璃纤维'/ 
&OBST ID='A01.stl', XB=0.9,1.0,5.828671E-16,5.828671E-16,-0.8,-0.7, SURF_ID='E-玻璃纤维'/ 
&OBST ID='A01.stl', XB=0.9,1.0,-0.3,-0.3,-0.7,-0.6, SURF_ID='E-玻璃纤维'/ 
&OBST ID='A01.stl', XB=0.9,1.0,0.3,0.3,-0.7,-0.6, SURF_ID='E-玻璃纤维'/ 
&OBST ID='A01.stl', XB=0.9,1.0,-0.6,-0.6,-0.5,-0.3, SURF_ID='E-玻璃纤维'/ 
&OBST ID='A01.stl', XB=0.9,1.0,0.6,0.6,-0.5,-0.3, SURF_ID='E-玻璃纤维'/ 
&OBST ID='A01.stl', XB=0.9,1.0,-0.7,-0.7,-0.3,0.4, SURF_ID='E-玻璃纤维'/ 
&OBST ID='A01.stl', XB=0.9,1.0,0.7,0.7,-0.3,0.4, SURF_ID='E-玻璃纤维'/ 
&OBST ID='A01.stl', XB=0.9,1.0,-0.6,-0.6,0.4,0.5, SURF_ID='E-玻璃纤维'/ 
&OBST ID='A01.stl', XB=0.9,1.0,0.6,0.6,0.4,0.5, SURF_ID='E-玻璃纤维'/ 
&OBST ID='A01.stl', XB=0.9,1.0,-0.4,-0.4,0.6,0.7, SURF_ID='E-玻璃纤维'/ 
&OBST ID='A01.stl', XB=0.9,1.0,0.4,0.4,0.6,0.7, SURF_ID='E-玻璃纤维'/ 
&OBST ID='A01.stl', XB=0.9,1.0,-0.2,-0.2,0.7,0.9, SURF_ID='E-玻璃纤维'/ 
&OBST ID='A01.stl', XB=0.9,1.0,0.2,0.2,0.7,0.9, SURF_ID='E-玻璃纤维'/ 
&OBST ID='A01.stl', XB=0.9,1.1,-0.5,-0.5,-0.6,-0.5, SURF_ID='E-玻璃纤维'/ 
&OBST ID='A01.stl', XB=0.9,1.1,0.5,0.5,-0.6,-0.5, SURF_ID='E-玻璃纤维'/ 
&OBST ID='A01.stl', XB=1.0,1.1,-0.2,-0.2,-0.8,-0.7, SURF_ID='E-玻璃纤维'/ 
&OBST ID='A01.stl', XB=1.0,1.1,0.2,0.2,-0.8,-0.7, SURF_ID='E-玻璃纤维'/ 
&OBST ID='A01.stl', XB=1.0,1.1,-0.4,-0.4,-0.7,-0.6, SURF_ID='E-玻璃纤维'/ 
&OBST ID='A01.stl', XB=1.0,1.1,0.4,0.4,-0.7,-0.6, SURF_ID='E-玻璃纤维'/ 
&OBST ID='A01.stl', XB=1.0,1.1,-0.6,-0.6,-0.5,-0.4, SURF_ID='E-玻璃纤维'/ 
&OBST ID='A01.stl', XB=1.0,1.1,0.6,0.6,-0.5,-0.4, SURF_ID='E-玻璃纤维'/ 
&OBST ID='A01.stl', XB=1.0,1.1,-0.7,-0.7,-0.4,-0.2, SURF_ID='E-玻璃纤维'/ 
&OBST ID='A01.stl', XB=1.0,1.1,0.7,0.7,-0.4,-0.2, SURF_ID='E-玻璃纤维'/ 
&OBST ID='A01.stl', XB=1.0,1.1,-0.8,-0.8,-0.2,0.3, SURF_ID='E-玻璃纤维'/ 
&OBST ID='A01.stl', XB=1.0,1.1,0.8,0.8,-0.2,0.3, SURF_ID='E-玻璃纤维'/ 
&OBST ID='A01.stl', XB=1.0,1.1,-0.7,-0.7,0.3,0.5, SURF_ID='E-玻璃纤维'/ 
&OBST ID='A01.stl', XB=1.0,1.1,0.7,0.7,0.3,0.5, SURF_ID='E-玻璃纤维'/ 
&OBST ID='A01.stl', XB=1.0,1.1,-0.6,-0.6,0.5,0.6, SURF_ID='E-玻璃纤维'/ 
&OBST ID='A01.stl', XB=1.0,1.1,0.6,0.6,0.5,0.6, SURF_ID='E-玻璃纤维'/ 