Separated_merge_20260720.fds
Generated by PyroSim 2024.2.1120
2026年7月20日 20:51:34

-------------User Section (not generated by PyroSim)-------------

&RAMP ID='NUCLEAR_RAMP', T=0.000000, F=0.000000 /
&RAMP ID='NUCLEAR_RAMP', T=0.030343, F=0.026000 /
&RAMP ID='NUCLEAR_RAMP', T=0.060686, F=0.110000 /
&RAMP ID='NUCLEAR_RAMP', T=0.091028, F=0.230000 /
&RAMP ID='NUCLEAR_RAMP', T=0.121371, F=0.380000 /
&RAMP ID='NUCLEAR_RAMP', T=0.151715, F=0.565000 /
&RAMP ID='NUCLEAR_RAMP', T=0.182057, F=0.735000 /
&RAMP ID='NUCLEAR_RAMP', T=0.212403, F=0.855000 /
&RAMP ID='NUCLEAR_RAMP', T=0.242745, F=0.945000 /
&RAMP ID='NUCLEAR_RAMP', T=0.273088, F=0.980000 /
&RAMP ID='NUCLEAR_RAMP', T=0.303431, F=1.000000 /
&RAMP ID='NUCLEAR_RAMP', T=0.364116, F=0.935000 /
&RAMP ID='NUCLEAR_RAMP', T=0.424802, F=0.795000 /
&RAMP ID='NUCLEAR_RAMP', T=0.485488, F=0.630000 /
&RAMP ID='NUCLEAR_RAMP', T=0.546174, F=0.520000 /
&RAMP ID='NUCLEAR_RAMP', T=0.606861, F=0.430000 /
&RAMP ID='NUCLEAR_RAMP', T=0.667547, F=0.366000 /
&RAMP ID='NUCLEAR_RAMP', T=0.728233, F=0.320000 /
&RAMP ID='NUCLEAR_RAMP', T=0.788918, F=0.280000 /
&RAMP ID='NUCLEAR_RAMP', T=0.849604, F=0.245000 /
&RAMP ID='NUCLEAR_RAMP', T=0.910291, F=0.218000 /
&RAMP ID='NUCLEAR_RAMP', T=0.970976, F=0.195000 /
&RAMP ID='NUCLEAR_RAMP', T=1.031664, F=0.175000 /
&RAMP ID='NUCLEAR_RAMP', T=1.092349, F=0.158000 /
&RAMP ID='NUCLEAR_RAMP', T=1.153035, F=0.140000 /
&RAMP ID='NUCLEAR_RAMP', T=1.213722, F=0.126000 /
&RAMP ID='NUCLEAR_RAMP', T=1.365435, F=0.098000 /
&RAMP ID='NUCLEAR_RAMP', T=1.517152, F=0.082000 /
&RAMP ID='NUCLEAR_RAMP', T=1.668866, F=0.067000 /
&RAMP ID='NUCLEAR_RAMP', T=1.820583, F=0.061000 /
&RAMP ID='NUCLEAR_RAMP', T=1.972298, F=0.052000 /
&RAMP ID='NUCLEAR_RAMP', T=2.124011, F=0.046000 /
&RAMP ID='NUCLEAR_RAMP', T=2.427442, F=0.037000 /
&RAMP ID='NUCLEAR_RAMP', T=2.730873, F=0.031000 /
&RAMP ID='NUCLEAR_RAMP', T=3.034303, F=0.029000 /
&RAMP ID='NUCLEAR_RAMP', T=3.337733, F=0.027000 /
&RAMP ID='NUCLEAR_RAMP', T=3.641164, F=0.025000 /
&RAMP ID='NUCLEAR_RAMP', T=3.944594, F=0.024000 /
&RAMP ID='NUCLEAR_RAMP', T=4.248025, F=0.023000 /
&RAMP ID='NUCLEAR_RAMP', T=4.758339, F=0.000000 /
&RAMP ID='NUCLEAR_RAMP', T=4.763072, F=0.000000 /
&RAMP ID='Q_RAMP', T=0.0, F=0.0 /
&RAMP ID='Q_RAMP', T=3.0, F=1.0 /


--------------------PyroSim-generated Section--------------------

&HEAD CHID='Q0400_W0100_az270_el15_H1H7_v2'/
&TIME T_END=1500.0/
&DUMP DT_RESTART=300.0, DT_SL3D=0.25/

&MESH ID='Mesh01_0_0_0', IJK=85,9,10, XB=-0.300000,8.200000,-1.900000,-1.000000,-2.200000,-1.200000, MPI_PROCESS=0 /
&MESH ID='Mesh01_0_0_1', IJK=85,9,10, XB=-0.300000,8.200000,-1.900000,-1.000000,-1.200000,-0.200000, MPI_PROCESS=1 /
&MESH ID='Mesh01_0_0_2', IJK=85,9,10, XB=-0.300000,8.200000,-1.900000,-1.000000,-0.200000,0.800000, MPI_PROCESS=2 /
&MESH ID='Mesh01_0_0_3', IJK=85,9,9, XB=-0.300000,8.200000,-1.900000,-1.000000,0.800000,1.700000, MPI_PROCESS=3 /
&MESH ID='Mesh01_0_0_4', IJK=85,9,9, XB=-0.300000,8.200000,-1.900000,-1.000000,1.700000,2.600000, MPI_PROCESS=4 /
&MESH ID='Mesh01_0_1_0', IJK=85,9,10, XB=-0.300000,8.200000,-1.000000,-0.100000,-2.200000,-1.200000, MPI_PROCESS=5 /
&MESH ID='Mesh01_0_1_1', IJK=85,9,10, XB=-0.300000,8.200000,-1.000000,-0.100000,-1.200000,-0.200000, MPI_PROCESS=6 /
&MESH ID='Mesh01_0_1_2', IJK=85,9,10, XB=-0.300000,8.200000,-1.000000,-0.100000,-0.200000,0.800000, MPI_PROCESS=7 /
&MESH ID='Mesh01_0_1_3', IJK=85,9,9, XB=-0.300000,8.200000,-1.000000,-0.100000,0.800000,1.700000, MPI_PROCESS=8 /
&MESH ID='Mesh01_0_1_4', IJK=85,9,9, XB=-0.300000,8.200000,-1.000000,-0.100000,1.700000,2.600000, MPI_PROCESS=9 /
&MESH ID='Mesh01_0_2_0', IJK=85,9,10, XB=-0.300000,8.200000,-0.100000,0.800000,-2.200000,-1.200000, MPI_PROCESS=10 /
&MESH ID='Mesh01_0_2_1', IJK=85,9,10, XB=-0.300000,8.200000,-0.100000,0.800000,-1.200000,-0.200000, MPI_PROCESS=11 /
&MESH ID='Mesh01_0_2_2', IJK=85,9,10, XB=-0.300000,8.200000,-0.100000,0.800000,-0.200000,0.800000, MPI_PROCESS=12 /
&MESH ID='Mesh01_0_2_3', IJK=85,9,9, XB=-0.300000,8.200000,-0.100000,0.800000,0.800000,1.700000, MPI_PROCESS=13 /
&MESH ID='Mesh01_0_2_4', IJK=85,9,9, XB=-0.300000,8.200000,-0.100000,0.800000,1.700000,2.600000, MPI_PROCESS=14 /
&MESH ID='Mesh01_0_3_0', IJK=85,9,10, XB=-0.300000,8.200000,0.800000,1.700000,-2.200000,-1.200000, MPI_PROCESS=15 /
&MESH ID='Mesh01_0_3_1', IJK=85,9,10, XB=-0.300000,8.200000,0.800000,1.700000,-1.200000,-0.200000, MPI_PROCESS=16 /
&MESH ID='Mesh01_0_3_2', IJK=85,9,10, XB=-0.300000,8.200000,0.800000,1.700000,-0.200000,0.800000, MPI_PROCESS=17 /
&MESH ID='Mesh01_0_3_3', IJK=85,9,9, XB=-0.300000,8.200000,0.800000,1.700000,0.800000,1.700000, MPI_PROCESS=18 /
&MESH ID='Mesh01_0_3_4', IJK=85,9,9, XB=-0.300000,8.200000,0.800000,1.700000,1.700000,2.600000, MPI_PROCESS=19 /
&MESH ID='Mesh02_1_0', IJK=36,18,32, XB=8.200000,10.100000,-1.900000,-1.000000,-2.200000,-0.600000, MPI_PROCESS=20 /
&MESH ID='Mesh02_1_1', IJK=36,18,32, XB=8.200000,10.100000,-1.000000,-0.100000,-2.200000,-0.600000, MPI_PROCESS=21 /
&MESH ID='Mesh02_1_2', IJK=36,18,32, XB=8.200000,10.100000,-0.100000,0.800000,-2.200000,-0.600000, MPI_PROCESS=22 /
&MESH ID='Mesh02_1_3', IJK=36,18,32, XB=8.200000,10.100000,0.800000,1.700000,-2.200000,-0.600000, MPI_PROCESS=23 /
&MESH ID='Mesh02_2_0', IJK=36,18,32, XB=8.200000,10.100000,-1.900000,-1.000000,-0.600000,1.000000, MPI_PROCESS=24 /
&MESH ID='Mesh02_2_1', IJK=36,18,32, XB=8.200000,10.100000,-1.000000,-0.100000,-0.600000,1.000000, MPI_PROCESS=25 /
&MESH ID='Mesh02_2_2', IJK=36,18,32, XB=8.200000,10.100000,-0.100000,0.800000,-0.600000,1.000000, MPI_PROCESS=26 /
&MESH ID='Mesh02_2_3', IJK=36,18,32, XB=8.200000,10.100000,0.800000,1.700000,-0.600000,1.000000, MPI_PROCESS=27 /
&MESH ID='Mesh02_3_0', IJK=36,18,32, XB=8.200000,10.100000,-1.900000,-1.000000,1.000000,2.600000, MPI_PROCESS=28 /
&MESH ID='Mesh02_3_1', IJK=36,18,32, XB=8.200000,10.100000,-1.000000,-0.100000,1.000000,2.600000, MPI_PROCESS=29 /
&MESH ID='Mesh02_3_2', IJK=36,18,32, XB=8.200000,10.100000,-0.100000,0.800000,1.000000,2.600000, MPI_PROCESS=30 /
&MESH ID='Mesh02_3_3', IJK=36,18,32, XB=8.200000,10.100000,0.800000,1.700000,1.000000,2.600000, MPI_PROCESS=31 /


&SPEC ID='SFPE POLYURETHANE_GM27_fuel', FORMULA='C1.0H1.7O0.3N0.08'/

&REAC ID='SIMPLE_BURN', FUEL='SFUEL', C=1.0, H=1.7, O=0.3, N=0.08,
      HEAT_OF_COMBUSTION=2.0E4, CO_YIELD=0.03, SOOT_YIELD=0.10, RADIATIVE_FRACTION=0.35/


&MATL ID='EBLXW',
      SPECIFIC_HEAT=1.0,
      CONDUCTIVITY=0.35,
      DENSITY=2540.0,
      EMISSIVITY=0.9/
&MATL ID='BXSSL',
      SPECIFIC_HEAT=1.46,
      CONDUCTIVITY=0.19,
      DENSITY=1190.0,
      EMISSIVITY=0.9/
&MATL ID='NLZW',
      SPECIFIC_HEAT=1.7,
      CONDUCTIVITY=0.25,
      DENSITY=1140.0,
      EMISSIVITY=0.9/
&MATL ID='HYBLXW',
      SPECIFIC_HEAT=1.0,
      CONDUCTIVITY=0.35,
      DENSITY=2540.0,
      EMISSIVITY=0.9/
&MATL ID='JAZPM',
      SPECIFIC_HEAT=1.4,
      CONDUCTIVITY=0.03,
      DENSITY=35.0,
      EMISSIVITY=0.9/
&MATL ID='LHJ2024',
      SPECIFIC_HEAT=0.875,
      CONDUCTIVITY=60.0,
      DENSITY=2780.0,
      EMISSIVITY=0.9/
&MATL ID='LHJ5052',
      SPECIFIC_HEAT=0.88,
      CONDUCTIVITY=70.0,
      DENSITY=2680.0,
      EMISSIVITY=0.9/
&MATL ID='LHJ7075',
      SPECIFIC_HEAT=0.96,
      CONDUCTIVITY=65.0,
      DENSITY=2810.0,
      EMISSIVITY=0.9/
&MATL ID='LHJ6061', SPECIFIC_HEAT=0.896, CONDUCTIVITY=167.0, DENSITY=2700.0, EMISSIVITY=0.9/
&MATL ID='PVCSL', SPECIFIC_HEAT=0.84, CONDUCTIVITY=0.19, DENSITY=1449.0, EMISSIVITY=0.9/
&MATL ID='CRXJ', SPECIFIC_HEAT=1.12, CONDUCTIVITY=0.19, DENSITY=1500.0, EMISSIVITY=0.9/


&SURF ID='E-玻璃纤维',
      RGB=153,153,153,
      TRANSPARENCY=0.729412,
      MATL_ID(1,1)='EBLXW',
      MATL_MASS_FRACTION(1,1)=1.0,
      THICKNESS(1)=0.12,
      HRRPUA=75,
      IGNITION_TEMPERATURE=400/
&SURF ID='丙烯酸塑料',
      RGB=146,202,166,
      MATL_ID(1,1)='BXSSL',
      MATL_MASS_FRACTION(1,1)=1.0,
      THICKNESS(1)=0.075,
      HRRPUA=250,
      IGNITION_TEMPERATURE=250/
&SURF ID='尼龙织物_床垫',
      RGB=146,26,223,
      TRANSPARENCY=0.886275,
      MATL_ID(1,1)='NLZW',
      MATL_MASS_FRACTION(1,1)=1.0,
      THICKNESS(1)=0.12,
      IGNITION_TEMPERATURE=250,
      HRRPUA=180,
      RAMP_Q='Q_RAMP',
      BURN_AWAY=.FALSE./
&SURF ID='尼龙织物_窗帘3mm',
      RGB=146,26,223,
      TRANSPARENCY=0.886275,
      MATL_ID(1,1)='NLZW',
      MATL_MASS_FRACTION(1,1)=1.0,
      THICKNESS(1)=0.03,
      IGNITION_TEMPERATURE=250,
      HRRPUA=180,
      RAMP_Q='Q_RAMP',
      BURN_AWAY=.FALSE./
&SURF ID='环氧玻璃纤维',
      RGB=255,153,153,
      TRANSPARENCY=0.866667,
      MATL_ID(1,1)='HYBLXW',
      MATL_MASS_FRACTION(1,1)=1.0,
      THICKNESS(1)=0.03,
      IGNITION_TEMPERATURE=350,
      HRRPUA=100,
      RAMP_Q='Q_RAMP'/
&SURF ID='聚氨酯泡沫',
      RGB=146,234,117,
      TRANSPARENCY=0.827451,
      MATL_ID(1,1)='JAZPM',
      MATL_MASS_FRACTION(1,1)=1.0,
      THICKNESS(1)=0.15,
      IGNITION_TEMPERATURE=250,
      HRRPUA=200,
      RAMP_Q='Q_RAMP',
      BURN_AWAY=.FALSE./
&SURF ID='铝合金2024',
      RGB=153,153,153,
      TRANSPARENCY=0.54902,
      MATL_ID(1,1)='LHJ2024',
      MATL_MASS_FRACTION(1,1)=1.0,
      THICKNESS(1)=0.002/
&SURF ID='铝合金5052',
      RGB=255,255,51,
      TRANSPARENCY=0.827451,
      MATL_ID(1,1)='LHJ5052',
      MATL_MASS_FRACTION(1,1)=1.0,
      THICKNESS(1)=1.5E-3/
&SURF ID='铝合金7075',
      RGB=153,153,0,
      TRANSPARENCY=0.819608,
      MATL_ID(1,1)='LHJ7075',
      MATL_MASS_FRACTION(1,1)=1.0,
      THICKNESS(1)=0.003/
&SURF ID='铝合金7075_氧气瓶',
      RGB=0,255,153,
      MATL_ID(1,1)='LHJ7075',
      MATL_MASS_FRACTION(1,1)=1.0,
      THICKNESS(1)=5.0E-3/
&SURF ID='导航子系统',
      RGB=204,255,51,
      MATL_ID(1,1)='LHJ6061',
      MATL_MASS_FRACTION(1,1)=1.0,
      THICKNESS(1)=3.0E-3/
&SURF ID='任务子系统',
      RGB=204,255,51,
      MATL_ID(1,1)='LHJ6061',
      MATL_MASS_FRACTION(1,1)=1.0,
      THICKNESS(1)=3.0E-3/
&SURF ID='显示子系统',
      RGB=204,255,51,
      MATL_ID(1,1)='LHJ6061',
      MATL_MASS_FRACTION(1,1)=1.0,
      THICKNESS(1)=3.0E-3/
&SURF ID='通信子系统',
      RGB=204,255,51,
      MATL_ID(1,1)='LHJ6061',
      MATL_MASS_FRACTION(1,1)=1.0,
      THICKNESS(1)=3.0E-3/
&SURF ID='电池',
      RGB=204,255,51,
      MATL_ID(1,1)='LHJ6061',
      MATL_MASS_FRACTION(1,1)=1.0,
      THICKNESS(1)=3.0E-3/
&SURF ID='电力传输子系统',
      RGB=204,255,51,
      HRRPUA=200.0,
      IGNITION_TEMPERATURE=468.6,
      MATL_ID(1,1)='PVCSL',
      MATL_MASS_FRACTION(1,1)=1.0,
      THICKNESS(1)=1.0E-3, RAMP_Q='Q_RAMP'/
&SURF ID='操纵子系统',
      RGB=204,255,51,
      HRRPUA=180.0,
      IGNITION_TEMPERATURE=410.0,
      MATL_ID(1,1)='CRXJ',
      MATL_MASS_FRACTION(1,1)=1.0,
      THICKNESS(1)=2.0E-3, RAMP_Q='Q_RAMP'/


&OBST ID='A01.stl', XB=2.775558E-17,0.1,-0.1,0.1,-0.2,-0.2, SURF_ID='E-玻璃纤维'/ 
&OBST ID='A01.stl', XB=2.775558E-17,0.1,-0.1,0.1,0.2,0.2, SURF_ID='E-玻璃纤维'/ 
&OBST ID='A01.stl', XB=0.1,0.2,-0.1,0.1,-0.3,-0.3, SURF_ID='E-玻璃纤维'/ 
&OBST ID='A01.stl', XB=0.1,0.2,-0.2,-0.1,-0.2,-0.2, SURF_ID='E-玻璃纤维'/ 
&OBST ID='A01.stl', XB=0.1,0.2,0.1,0.2,-0.2,-0.2, SURF_ID='E-玻璃纤维'/ 
&OBST ID='A01.stl', XB=0.1,0.2,-0.2,-0.1,0.2,0.2, SURF_ID='E-玻璃纤维'/ 
&OBST ID='A01.stl', XB=0.1,0.2,0.1,0.2,0.2,0.2, SURF_ID='E-玻璃纤维'/ 
&OBST ID='A01.stl', XB=0.1,0.2,-0.1,0.1,0.3,0.3, SURF_ID='E-玻璃纤维'/ 
&OBST ID='A01.stl', XB=0.2,0.3,-0.2,-0.1,-0.3,-0.3, SURF_ID='E-玻璃纤维'/ 
&OBST ID='A01.stl', XB=0.2,0.3,0.1,0.2,-0.3,-0.3, SURF_ID='E-玻璃纤维'/ 
&OBST ID='A01.stl', XB=0.2,0.3,-0.3,-0.2,-0.2,-0.2, SURF_ID='E-玻璃纤维'/ 
&OBST ID='A01.stl', XB=0.2,0.3,0.2,0.3,-0.2,-0.2, SURF_ID='E-玻璃纤维'/ 
&OBST ID='A01.stl', XB=0.2,0.3,-0.3,-0.2,0.2,0.2, SURF_ID='E-玻璃纤维'/ 
&OBST ID='A01.stl', XB=0.2,0.3,0.2,0.3,0.2,0.2, SURF_ID='E-玻璃纤维'/ 
&OBST ID='A01.stl', XB=0.2,0.3,-0.2,-0.1,0.3,0.3, SURF_ID='E-玻璃纤维'/ 
&OBST ID='A01.stl', XB=0.2,0.3,0.1,0.2,0.3,0.3, SURF_ID='E-玻璃纤维'/ 
&OBST ID='A01.stl', XB=0.2,0.4,-0.1,0.1,-0.4,-0.4, SURF_ID='E-玻璃纤维'/ 
&OBST ID='A01.stl', XB=0.2,0.4,-0.1,0.1,0.4,0.4, SURF_ID='E-玻璃纤维'/ 
&OBST ID='A01.stl', XB=0.3,0.4,-0.2,-0.1,-0.4,-0.4, SURF_ID='E-玻璃纤维'/ 
&OBST ID='A01.stl', XB=0.3,0.4,0.1,0.2,-0.4,-0.4, SURF_ID='E-玻璃纤维'/ 
&OBST ID='A01.stl', XB=0.3,0.4,-0.3,-0.2,-0.3,-0.3, SURF_ID='E-玻璃纤维'/ 
&OBST ID='A01.stl', XB=0.3,0.4,0.2,0.3,-0.3,-0.3, SURF_ID='E-玻璃纤维'/ 
&OBST ID='A01.stl', XB=0.3,0.4,-0.4,-0.3,-0.2,-0.2, SURF_ID='E-玻璃纤维'/ 
&OBST ID='A01.stl', XB=0.3,0.4,0.3,0.4,-0.2,-0.2, SURF_ID='E-玻璃纤维'/ 
&OBST ID='A01.stl', XB=0.3,0.4,-0.4,-0.3,0.2,0.2, SURF_ID='E-玻璃纤维'/ 
&OBST ID='A01.stl', XB=0.3,0.4,0.3,0.4,0.2,0.2, SURF_ID='E-玻璃纤维'/ 
&OBST ID='A01.stl', XB=0.3,0.4,-0.3,-0.2,0.3,0.3, SURF_ID='E-玻璃纤维'/ 
&OBST ID='A01.stl', XB=0.3,0.4,0.2,0.3,0.3,0.3, SURF_ID='E-玻璃纤维'/ 
&OBST ID='A01.stl', XB=0.3,0.4,-0.2,-0.1,0.4,0.4, SURF_ID='E-玻璃纤维'/ 
&OBST ID='A01.stl', XB=0.3,0.4,0.1,0.2,0.4,0.4, SURF_ID='E-玻璃纤维'/ 
&OBST ID='A01.stl', XB=0.4,0.5,-0.3,-0.2,-0.4,-0.4, SURF_ID='E-玻璃纤维'/ 
&OBST ID='A01.stl', XB=0.4,0.5,0.2,0.3,-0.4,-0.4, SURF_ID='E-玻璃纤维'/ 
&OBST ID='A01.stl', XB=0.4,0.5,-0.4,-0.3,-0.3,-0.3, SURF_ID='E-玻璃纤维'/ 
&OBST ID='A01.stl', XB=0.4,0.5,0.3,0.4,-0.3,-0.3, SURF_ID='E-玻璃纤维'/ 
&OBST ID='A01.stl', XB=0.4,0.5,-0.5,-0.4,-0.1,-0.1, SURF_ID='E-玻璃纤维'/ 
&OBST ID='A01.stl', XB=0.4,0.5,0.4,0.5,-0.1,-0.1, SURF_ID='E-玻璃纤维'/ 
&OBST ID='A01.stl', XB=0.4,0.5,-0.5,-0.4,0.1,0.1, SURF_ID='E-玻璃纤维'/ 
&OBST ID='A01.stl', XB=0.4,0.5,0.4,0.5,0.1,0.1, SURF_ID='E-玻璃纤维'/ 
&OBST ID='A01.stl', XB=0.4,0.5,-0.4,-0.3,0.3,0.3, SURF_ID='E-玻璃纤维'/ 
&OBST ID='A01.stl', XB=0.4,0.5,0.3,0.4,0.3,0.3, SURF_ID='E-玻璃纤维'/ 
&OBST ID='A01.stl', XB=0.4,0.5,-0.3,-0.2,0.4,0.4, SURF_ID='E-玻璃纤维'/ 
&OBST ID='A01.stl', XB=0.4,0.5,0.2,0.3,0.4,0.4, SURF_ID='E-玻璃纤维'/ 
&OBST ID='A01.stl', XB=0.4,0.5,-0.1,0.1,0.5,0.5, SURF_ID='E-玻璃纤维'/ 
&OBST ID='A01.stl', XB=0.4,0.6,-0.2,0.2,-0.5,-0.5, SURF_ID='E-玻璃纤维'/ 
&OBST ID='A01.stl', XB=0.4,0.6,-0.2,-0.1,0.5,0.5, SURF_ID='E-玻璃纤维'/ 
&OBST ID='A01.stl', XB=0.4,0.6,0.1,0.2,0.5,0.5, SURF_ID='E-玻璃纤维'/ 
&OBST ID='A01.stl', XB=0.5,0.6,-0.4,-0.3,-0.4,-0.4, SURF_ID='E-玻璃纤维'/ 
&OBST ID='A01.stl', XB=0.5,0.6,0.3,0.4,-0.4,-0.4, SURF_ID='E-玻璃纤维'/ 
&OBST ID='A01.stl', XB=0.5,0.6,-0.5,-0.4,-0.3,-0.3, SURF_ID='E-玻璃纤维'/ 
&OBST ID='A01.stl', XB=0.5,0.6,0.4,0.5,-0.3,-0.3, SURF_ID='E-玻璃纤维'/ 
&OBST ID='A01.stl', XB=0.5,0.6,-0.5,-0.4,0.3,0.3, SURF_ID='E-玻璃纤维'/ 
&OBST ID='A01.stl', XB=0.5,0.6,0.4,0.5,0.3,0.3, SURF_ID='E-玻璃纤维'/ 
&OBST ID='A01.stl', XB=0.5,0.6,-0.4,-0.3,0.4,0.4, SURF_ID='E-玻璃纤维'/ 
&OBST ID='A01.stl', XB=0.5,0.6,0.3,0.4,0.4,0.4, SURF_ID='E-玻璃纤维'/ 
&OBST ID='A01.stl', XB=0.5,0.6,-0.3,-0.2,0.5,0.5, SURF_ID='E-玻璃纤维'/ 
&OBST ID='A01.stl', XB=0.5,0.6,0.2,0.3,0.5,0.5, SURF_ID='E-玻璃纤维'/ 
&OBST ID='A01.stl', XB=0.5,0.7,-0.3,-0.2,-0.5,-0.5, SURF_ID='E-玻璃纤维'/ 
&OBST ID='A01.stl', XB=0.5,0.7,0.2,0.3,-0.5,-0.5, SURF_ID='E-玻璃纤维'/ 
&OBST ID='A01.stl', XB=0.5,0.7,-0.1,0.1,0.6,0.6, SURF_ID='E-玻璃纤维'/ 
&OBST ID='A01.stl', XB=0.6,0.7,-0.1,0.1,-0.6,-0.6, SURF_ID='E-玻璃纤维'/ 
&OBST ID='A01.stl', XB=0.6,0.7,-0.6,-0.5,-0.2,-0.2, SURF_ID='E-玻璃纤维'/ 
&OBST ID='A01.stl', XB=0.6,0.7,0.5,0.6,-0.2,-0.2, SURF_ID='E-玻璃纤维'/ 
&OBST ID='A01.stl', XB=0.6,0.7,-0.6,-0.5,0.2,0.2, SURF_ID='E-玻璃纤维'/ 
&OBST ID='A01.stl', XB=0.6,0.7,0.5,0.6,0.2,0.2, SURF_ID='E-玻璃纤维'/ 
&OBST ID='A01.stl', XB=0.6,0.7,-0.5,-0.4,0.4,0.4, SURF_ID='E-玻璃纤维'/ 
&OBST ID='A01.stl', XB=0.6,0.7,0.4,0.5,0.4,0.4, SURF_ID='E-玻璃纤维'/ 
&OBST ID='A01.stl', XB=0.6,0.7,-0.4,-0.3,0.5,0.5, SURF_ID='E-玻璃纤维'/ 
&OBST ID='A01.stl', XB=0.6,0.7,0.3,0.4,0.5,0.5, SURF_ID='E-玻璃纤维'/ 
&OBST ID='A01.stl', XB=0.6,0.7,-0.2,-0.1,0.6,0.6, SURF_ID='E-玻璃纤维'/ 
&OBST ID='A01.stl', XB=0.6,0.7,0.1,0.2,0.6,0.6, SURF_ID='E-玻璃纤维'/ 
&OBST ID='A01.stl', XB=0.6,0.8,-0.2,-0.1,-0.6,-0.6, SURF_ID='E-玻璃纤维'/ 
&OBST ID='A01.stl', XB=0.6,0.8,0.1,0.2,-0.6,-0.6, SURF_ID='E-玻璃纤维'/ 
&OBST ID='A01.stl', XB=0.6,0.8,-0.4,-0.3,-0.5,-0.5, SURF_ID='E-玻璃纤维'/ 
&OBST ID='A01.stl', XB=0.6,0.8,0.3,0.4,-0.5,-0.5, SURF_ID='E-玻璃纤维'/ 
&OBST ID='A01.stl', XB=0.6,0.8,-0.5,-0.4,-0.4,-0.4, SURF_ID='E-玻璃纤维'/ 
&OBST ID='A01.stl', XB=0.6,0.8,0.4,0.5,-0.4,-0.4, SURF_ID='E-玻璃纤维'/ 
&OBST ID='A01.stl', XB=0.6,0.8,-0.3,-0.2,0.6,0.6, SURF_ID='E-玻璃纤维'/ 
&OBST ID='A01.stl', XB=0.6,0.8,0.2,0.3,0.6,0.6, SURF_ID='E-玻璃纤维'/ 
&OBST ID='A01.stl', XB=0.7,0.8,-0.6,-0.5,-0.3,-0.3, SURF_ID='E-玻璃纤维'/ 
&OBST ID='A01.stl', XB=0.7,0.8,0.5,0.6,-0.3,-0.3, SURF_ID='E-玻璃纤维'/ 
&OBST ID='A01.stl', XB=0.7,0.8,-0.6,-0.5,0.4,0.4, SURF_ID='E-玻璃纤维'/ 
&OBST ID='A01.stl', XB=0.7,0.8,0.5,0.6,0.4,0.4, SURF_ID='E-玻璃纤维'/ 
&OBST ID='A01.stl', XB=0.7,0.8,-0.5,-0.4,0.5,0.5, SURF_ID='E-玻璃纤维'/ 
&OBST ID='A01.stl', XB=0.7,0.8,0.4,0.5,0.5,0.5, SURF_ID='E-玻璃纤维'/ 
&OBST ID='A01.stl', XB=0.7,0.8,-0.2,-0.1,0.7,0.7, SURF_ID='E-玻璃纤维'/ 
&OBST ID='A01.stl', XB=0.7,0.8,0.1,0.2,0.7,0.7, SURF_ID='E-玻璃纤维'/ 
&OBST ID='A01.stl', XB=0.7,0.9,-0.3,-0.2,-0.6,-0.6, SURF_ID='E-玻璃纤维'/ 
&OBST ID='A01.stl', XB=0.7,0.9,0.2,0.3,-0.6,-0.6, SURF_ID='E-玻璃纤维'/ 
&OBST ID='A01.stl', XB=0.7,0.9,-0.4,-0.3,0.6,0.6, SURF_ID='E-玻璃纤维'/ 
&OBST ID='A01.stl', XB=0.7,0.9,0.3,0.4,0.6,0.6, SURF_ID='E-玻璃纤维'/ 
&OBST ID='A01.stl', XB=0.7,1.0,-0.1,0.1,-0.7,-0.7, SURF_ID='E-玻璃纤维'/ 
&OBST ID='A01.stl', XB=0.7,1.3,-0.1,0.1,0.9,0.9, SURF_ID='E-玻璃纤维'/ 
&OBST ID='A01.stl', XB=0.8,0.9,-0.5,-0.4,-0.5,-0.5, SURF_ID='E-玻璃纤维'/ 
&OBST ID='A01.stl', XB=0.8,0.9,0.4,0.5,-0.5,-0.5, SURF_ID='E-玻璃纤维'/ 
&OBST ID='A01.stl', XB=0.8,0.9,-0.6,-0.5,-0.4,-0.4, SURF_ID='E-玻璃纤维'/ 
&OBST ID='A01.stl', XB=0.8,0.9,0.5,0.6,-0.4,-0.4, SURF_ID='E-玻璃纤维'/ 
&OBST ID='A01.stl', XB=0.8,0.9,-0.7,-0.6,-0.2,-0.2, SURF_ID='E-玻璃纤维'/ 
&OBST ID='A01.stl', XB=0.8,0.9,0.6,0.7,-0.2,-0.2, SURF_ID='E-玻璃纤维'/ 
&OBST ID='A01.stl', XB=0.8,0.9,-0.7,-0.6,0.3,0.3, SURF_ID='E-玻璃纤维'/ 
&OBST ID='A01.stl', XB=0.8,0.9,0.6,0.7,0.3,0.3, SURF_ID='E-玻璃纤维'/ 
&OBST ID='A01.stl', XB=0.8,0.9,-0.2,-0.1,0.8,0.8, SURF_ID='E-玻璃纤维'/ 
&OBST ID='A01.stl', XB=0.8,0.9,0.1,0.2,0.8,0.8, SURF_ID='E-玻璃纤维'/ 
&OBST ID='A01.stl', XB=0.8,1.0,-0.2,-0.1,-0.7,-0.7, SURF_ID='E-玻璃纤维'/ 
&OBST ID='A01.stl', XB=0.8,1.0,0.1,0.2,-0.7,-0.7, SURF_ID='E-玻璃纤维'/ 
&OBST ID='A01.stl', XB=0.8,1.0,-0.4,-0.3,-0.6,-0.6, SURF_ID='E-玻璃纤维'/ 
&OBST ID='A01.stl', XB=0.8,1.0,0.3,0.4,-0.6,-0.6, SURF_ID='E-玻璃纤维'/ 
&OBST ID='A01.stl', XB=0.8,1.0,-0.6,-0.5,0.5,0.5, SURF_ID='E-玻璃纤维'/ 
&OBST ID='A01.stl', XB=0.8,1.0,0.5,0.6,0.5,0.5, SURF_ID='E-玻璃纤维'/ 
&OBST ID='A01.stl', XB=0.8,1.0,-0.5,-0.4,0.6,0.6, SURF_ID='E-玻璃纤维'/ 
&OBST ID='A01.stl', XB=0.8,1.0,0.4,0.5,0.6,0.6, SURF_ID='E-玻璃纤维'/ 
&OBST ID='A01.stl', XB=0.8,1.0,-0.3,-0.2,0.7,0.7, SURF_ID='E-玻璃纤维'/ 
&OBST ID='A01.stl', XB=0.8,1.0,0.2,0.3,0.7,0.7, SURF_ID='E-玻璃纤维'/ 
&OBST ID='A01.stl', XB=0.9,1.0,-0.7,-0.6,-0.3,-0.3, SURF_ID='E-玻璃纤维'/ 
&OBST ID='A01.stl', XB=0.9,1.0,0.6,0.7,-0.3,-0.3, SURF_ID='E-玻璃纤维'/ 
&OBST ID='A01.stl', XB=0.9,1.0,-0.7,-0.6,0.4,0.4, SURF_ID='E-玻璃纤维'/ 
&OBST ID='A01.stl', XB=0.9,1.0,0.6,0.7,0.4,0.4, SURF_ID='E-玻璃纤维'/ 
&OBST ID='A01.stl', XB=0.9,1.1,-0.3,-0.2,-0.7,-0.7, SURF_ID='E-玻璃纤维'/ 
&OBST ID='A01.stl', XB=0.9,1.1,0.2,0.3,-0.7,-0.7, SURF_ID='E-玻璃纤维'/ 
&OBST ID='A01.stl', XB=0.9,1.1,-0.5,-0.4,-0.6,-0.6, SURF_ID='E-玻璃纤维'/ 
&OBST ID='A01.stl', XB=0.9,1.1,0.4,0.5,-0.6,-0.6, SURF_ID='E-玻璃纤维'/ 
&OBST ID='A01.stl', XB=0.9,1.1,-0.6,-0.5,-0.5,-0.5, SURF_ID='E-玻璃纤维'/ 
&OBST ID='A01.stl', XB=0.9,1.1,0.5,0.6,-0.5,-0.5, SURF_ID='E-玻璃纤维'/ 
&OBST ID='A01.stl', XB=0.9,1.1,-0.4,-0.3,0.7,0.7, SURF_ID='E-玻璃纤维'/ 
&OBST ID='A01.stl', XB=0.9,1.1,0.3,0.4,0.7,0.7, SURF_ID='E-玻璃纤维'/ 
&OBST ID='A01.stl', XB=0.9,1.3,-0.2,-0.1,0.9,0.9, SURF_ID='E-玻璃纤维'/ 
&OBST ID='A01.stl', XB=0.9,1.3,0.1,0.2,0.9,0.9, SURF_ID='E-玻璃纤维'/ 
&OBST ID='A01.stl', XB=1.0,1.1,-0.7,-0.6,-0.4,-0.4, SURF_ID='E-玻璃纤维'/ 
&OBST ID='A01.stl', XB=1.0,1.1,0.6,0.7,-0.4,-0.4, SURF_ID='E-玻璃纤维'/ 
&OBST ID='A01.stl', XB=1.0,1.1,-0.8,-0.7,-0.2,-0.2, SURF_ID='E-玻璃纤维'/ 
&OBST ID='A01.stl', XB=1.0,1.1,0.7,0.8,-0.2,-0.2, SURF_ID='E-玻璃纤维'/ 
&OBST ID='A01.stl', XB=1.0,1.1,-0.8,-0.7,0.3,0.3, SURF_ID='E-玻璃纤维'/ 
&OBST ID='A01.stl', XB=1.0,1.1,0.7,0.8,0.3,0.3, SURF_ID='E-玻璃纤维'/ 
&OBST ID='A01.stl', XB=1.0,1.1,-0.7,-0.6,0.5,0.5, SURF_ID='E-玻璃纤维'/ 
&OBST ID='A01.stl', XB=1.0,1.1,0.6,0.7,0.5,0.5, SURF_ID='E-玻璃纤维'/ 
&OBST ID='A01.stl', XB=1.0,1.1,-0.6,-0.5,0.6,0.6, SURF_ID='E-玻璃纤维'/ 
&OBST ID='A01.stl', XB=1.0,1.1,0.5,0.6,0.6,0.6, SURF_ID='E-玻璃纤维'/ 
&OBST ID='A01.stl', XB=1.0,1.2,-0.2,0.2,-0.8,-0.8, SURF_ID='E-玻璃纤维'/ 
&OBST ID='A01.stl', XB=1.0,1.2,-0.4,-0.3,-0.7,-0.7, SURF_ID='E-玻璃纤维'/ 
&OBST ID='A01.stl', XB=1.0,1.2,0.3,0.4,-0.7,-0.7, SURF_ID='E-玻璃纤维'/ 
&OBST ID='A01.stl', XB=1.0,1.2,-0.5,-0.4,0.7,0.7, SURF_ID='E-玻璃纤维'/ 
&OBST ID='A01.stl', XB=1.0,1.2,0.4,0.5,0.7,0.7, SURF_ID='E-玻璃纤维'/ 
&OBST ID='A01.stl', XB=1.0,1.2,-0.3,-0.2,0.8,0.8, SURF_ID='E-玻璃纤维'/ 
&OBST ID='A01.stl', XB=1.0,1.2,0.2,0.3,0.8,0.8, SURF_ID='E-玻璃纤维'/ 
&OBST ID='A01.stl', XB=1.1,1.2,-0.8,-0.7,-0.3,-0.3, SURF_ID='E-玻璃纤维'/ 
&OBST ID='A01.stl', XB=1.1,1.2,0.7,0.8,-0.3,-0.3, SURF_ID='E-玻璃纤维'/ 
&OBST ID='A01.stl', XB=1.1,1.2,-0.8,-0.7,0.4,0.4, SURF_ID='E-玻璃纤维'/ 
&OBST ID='A01.stl', XB=1.1,1.2,0.7,0.8,0.4,0.4, SURF_ID='E-玻璃纤维'/ 
&OBST ID='A01.stl', XB=1.1,1.2,0.3,0.4,0.8,0.8, SURF_ID='E-玻璃纤维'/ 
&OBST ID='A01.stl', XB=1.1,1.3,-0.3,-0.2,-0.8,-0.8, SURF_ID='E-玻璃纤维'/ 
&OBST ID='A01.stl', XB=1.1,1.3,0.2,0.3,-0.8,-0.8, SURF_ID='E-玻璃纤维'/ 
&OBST ID='A01.stl', XB=1.1,1.3,-0.5,-0.4,-0.7,-0.7, SURF_ID='E-玻璃纤维'/ 
&OBST ID='A01.stl', XB=1.1,1.3,0.4,0.5,-0.7,-0.7, SURF_ID='E-玻璃纤维'/ 
&OBST ID='A01.stl', XB=1.1,1.3,-0.6,-0.5,-0.6,-0.6, SURF_ID='E-玻璃纤维'/ 
&OBST ID='A01.stl', XB=1.1,1.3,0.5,0.6,-0.6,-0.6, SURF_ID='E-玻璃纤维'/ 
&OBST ID='A01.stl', XB=1.1,1.3,-0.7,-0.6,-0.5,-0.5, SURF_ID='E-玻璃纤维'/ 
&OBST ID='A01.stl', XB=1.1,1.3,0.6,0.7,-0.5,-0.5, SURF_ID='E-玻璃纤维'/ 
&OBST ID='A01.stl', XB=1.1,1.3,-0.7,-0.6,0.6,0.6, SURF_ID='E-玻璃纤维'/ 
&OBST ID='A01.stl', XB=1.1,1.3,0.6,0.7,0.6,0.6, SURF_ID='E-玻璃纤维'/ 
&OBST ID='A01.stl', XB=1.1,1.3,-0.6,-0.5,0.7,0.7, SURF_ID='E-玻璃纤维'/ 
&OBST ID='A01.stl', XB=1.1,1.3,0.5,0.6,0.7,0.7, SURF_ID='E-玻璃纤维'/ 
&OBST ID='A01.stl', XB=1.1,1.3,-0.4,-0.3,0.8,0.8, SURF_ID='E-玻璃纤维'/ 
&OBST ID='A01.stl', XB=1.2,1.3,-0.9,-0.8,-0.1,-0.1, SURF_ID='E-玻璃纤维'/ 
&OBST ID='A01.stl', XB=1.2,1.3,0.8,0.9,-0.1,-0.1, SURF_ID='E-玻璃纤维'/ 
&OBST ID='A01.stl', XB=1.2,1.3,-0.9,-0.8,0.2,0.2, SURF_ID='E-玻璃纤维'/ 
&OBST ID='A01.stl', XB=1.2,1.3,0.8,0.9,0.2,0.2, SURF_ID='E-玻璃纤维'/ 
&OBST ID='A01.stl', XB=1.2,1.3,-0.8,-0.7,0.5,0.5, SURF_ID='E-玻璃纤维'/ 
&OBST ID='A01.stl', XB=1.2,1.3,0.7,0.8,0.5,0.5, SURF_ID='E-玻璃纤维'/ 
&OBST ID='A01.stl', XB=1.2,1.3,-0.5,-0.4,0.8,0.8, SURF_ID='E-玻璃纤维'/ 
&OBST ID='A01.stl', XB=1.2,1.3,0.4,0.5,0.8,0.8, SURF_ID='E-玻璃纤维'/ 
&OBST ID='A01.stl', XB=1.2,1.4,-0.2,0.2,-0.9,-0.9, SURF_ID='E-玻璃纤维'/ 
&OBST ID='A01.stl', XB=1.2,1.4,-0.4,-0.3,-0.8,-0.8, SURF_ID='E-玻璃纤维'/ 
&OBST ID='A01.stl', XB=1.2,1.4,0.3,0.4,-0.8,-0.8, SURF_ID='E-玻璃纤维'/ 
&OBST ID='A01.stl', XB=1.2,1.4,-0.8,-0.7,-0.4,-0.4, SURF_ID='E-玻璃纤维'/ 
&OBST ID='A01.stl', XB=1.2,1.4,0.7,0.8,-0.4,-0.4, SURF_ID='E-玻璃纤维'/ 
&OBST ID='A01.stl', XB=1.2,1.4,-0.3,-0.2,0.9,0.9, SURF_ID='E-玻璃纤维'/ 
&OBST ID='A01.stl', XB=1.2,1.4,0.2,0.4,0.9,0.9, SURF_ID='E-玻璃纤维'/ 
&OBST ID='A01.stl', XB=1.3,1.4,-0.3,-0.2,-0.9,-0.9, SURF_ID='E-玻璃纤维'/ 
&OBST ID='A01.stl', XB=1.3,1.4,0.2,0.3,-0.9,-0.9, SURF_ID='E-玻璃纤维'/ 
&OBST ID='A01.stl', XB=1.3,1.4,-0.5,-0.4,-0.8,-0.8, SURF_ID='E-玻璃纤维'/ 
&OBST ID='A01.stl', XB=1.3,1.4,0.4,0.5,-0.8,-0.8, SURF_ID='E-玻璃纤维'/ 
&OBST ID='A01.stl', XB=1.3,1.4,-0.6,-0.5,-0.7,-0.7, SURF_ID='E-玻璃纤维'/ 
&OBST ID='A01.stl', XB=1.3,1.4,0.5,0.6,-0.7,-0.7, SURF_ID='E-玻璃纤维'/ 
&OBST ID='A01.stl', XB=1.3,1.4,-0.7,-0.6,-0.6,-0.6, SURF_ID='E-玻璃纤维'/ 
&OBST ID='A01.stl', XB=1.3,1.4,0.6,0.7,-0.6,-0.6, SURF_ID='E-玻璃纤维'/ 
&OBST ID='A01.stl', XB=1.3,1.4,-0.9,-0.8,-0.2,-0.2, SURF_ID='E-玻璃纤维'/ 
&OBST ID='A01.stl', XB=1.3,1.4,0.8,0.9,-0.2,-0.2, SURF_ID='E-玻璃纤维'/ 
&OBST ID='A01.stl', XB=1.3,1.4,-0.9,-0.8,0.4,0.4, SURF_ID='E-玻璃纤维'/ 
&OBST ID='A01.stl', XB=1.3,1.4,0.8,0.9,0.4,0.4, SURF_ID='E-玻璃纤维'/ 
&OBST ID='A01.stl', XB=1.3,1.4,-0.8,-0.7,0.6,0.6, SURF_ID='E-玻璃纤维'/ 
&OBST ID='A01.stl', XB=1.3,1.4,0.7,0.8,0.6,0.6, SURF_ID='E-玻璃纤维'/ 
&OBST ID='A01.stl', XB=1.3,1.4,-0.7,-0.6,0.7,0.7, SURF_ID='E-玻璃纤维'/ 
&OBST ID='A01.stl', XB=1.3,1.4,0.6,0.7,0.7,0.7, SURF_ID='E-玻璃纤维'/ 
&OBST ID='A01.stl', XB=1.3,1.4,-0.6,-0.5,0.8,0.8, SURF_ID='E-玻璃纤维'/ 
&OBST ID='A01.stl', XB=1.3,1.4,0.5,0.6,0.8,0.8, SURF_ID='E-玻璃纤维'/ 
&OBST ID='A01.stl', XB=1.3,1.4,-0.5,-0.3,0.9,0.9, SURF_ID='E-玻璃纤维'/ 
&OBST ID='A01.stl', XB=1.3,1.4,0.4,0.5,0.9,0.9, SURF_ID='E-玻璃纤维'/ 
&OBST ID='A01.stl', XB=1.3,1.4,-0.2,0.2,1.0,1.0, SURF_ID='E-玻璃纤维'/ 
&OBST ID='A01.stl', XB=2.775558E-17,0.1,-0.1,-0.1,-0.2,0.2, SURF_ID='E-玻璃纤维'/ 
&OBST ID='A01.stl', XB=2.775558E-17,0.1,0.1,0.1,-0.2,0.2, SURF_ID='E-玻璃纤维'/ 
&OBST ID='A01.stl', XB=0.1,0.2,-0.1,-0.1,-0.3,-0.2, SURF_ID='E-玻璃纤维'/ 
&OBST ID='A01.stl', XB=0.1,0.2,0.1,0.1,-0.3,-0.2, SURF_ID='E-玻璃纤维'/ 
&OBST ID='A01.stl', XB=0.1,0.2,-0.2,-0.2,-0.2,0.2, SURF_ID='E-玻璃纤维'/ 
&OBST ID='A01.stl', XB=0.1,0.2,0.2,0.2,-0.2,0.2, SURF_ID='E-玻璃纤维'/ 
&OBST ID='A01.stl', XB=0.1,0.2,-0.1,-0.1,0.2,0.3, SURF_ID='E-玻璃纤维'/ 
&OBST ID='A01.stl', XB=0.1,0.2,0.1,0.1,0.2,0.3, SURF_ID='E-玻璃纤维'/ 
&OBST ID='A01.stl', XB=0.2,0.3,-0.1,-0.1,-0.4,-0.3, SURF_ID='E-玻璃纤维'/ 
&OBST ID='A01.stl', XB=0.2,0.3,0.1,0.1,-0.4,-0.3, SURF_ID='E-玻璃纤维'/ 
&OBST ID='A01.stl', XB=0.2,0.3,-0.2,-0.2,-0.3,-0.2, SURF_ID='E-玻璃纤维'/ 
&OBST ID='A01.stl', XB=0.2,0.3,0.2,0.2,-0.3,-0.2, SURF_ID='E-玻璃纤维'/ 
&OBST ID='A01.stl', XB=0.2,0.3,-0.3,-0.3,-0.2,0.2, SURF_ID='E-玻璃纤维'/ 
&OBST ID='A01.stl', XB=0.2,0.3,0.3,0.3,-0.2,0.2, SURF_ID='E-玻璃纤维'/ 
&OBST ID='A01.stl', XB=0.2,0.3,-0.2,-0.2,0.2,0.3, SURF_ID='E-玻璃纤维'/ 
&OBST ID='A01.stl', XB=0.2,0.3,0.2,0.2,0.2,0.3, SURF_ID='E-玻璃纤维'/ 
&OBST ID='A01.stl', XB=0.2,0.3,-0.1,-0.1,0.3,0.4, SURF_ID='E-玻璃纤维'/ 
&OBST ID='A01.stl', XB=0.2,0.3,0.1,0.1,0.3,0.4, SURF_ID='E-玻璃纤维'/ 
&OBST ID='A01.stl', XB=0.3,0.4,-0.2,-0.2,-0.4,-0.3, SURF_ID='E-玻璃纤维'/ 
&OBST ID='A01.stl', XB=0.3,0.4,0.2,0.2,-0.4,-0.3, SURF_ID='E-玻璃纤维'/ 
&OBST ID='A01.stl', XB=0.3,0.4,-0.3,-0.3,-0.3,-0.2, SURF_ID='E-玻璃纤维'/ 
&OBST ID='A01.stl', XB=0.3,0.4,0.3,0.3,-0.3,-0.2, SURF_ID='E-玻璃纤维'/ 
&OBST ID='A01.stl', XB=0.3,0.4,-0.4,-0.4,-0.2,0.2, SURF_ID='E-玻璃纤维'/ 
&OBST ID='A01.stl', XB=0.3,0.4,0.4,0.4,-0.2,0.2, SURF_ID='E-玻璃纤维'/ 
&OBST ID='A01.stl', XB=0.3,0.4,-0.3,-0.3,0.2,0.3, SURF_ID='E-玻璃纤维'/ 
&OBST ID='A01.stl', XB=0.3,0.4,0.3,0.3,0.2,0.3, SURF_ID='E-玻璃纤维'/ 
&OBST ID='A01.stl', XB=0.3,0.4,-0.2,-0.2,0.3,0.4, SURF_ID='E-玻璃纤维'/ 
&OBST ID='A01.stl', XB=0.3,0.4,0.2,0.2,0.3,0.4, SURF_ID='E-玻璃纤维'/ 
&OBST ID='A01.stl', XB=0.4,0.5,-0.2,-0.2,-0.5,-0.4, SURF_ID='E-玻璃纤维'/ 
&OBST ID='A01.stl', XB=0.4,0.5,0.2,0.2,-0.5,-0.4, SURF_ID='E-玻璃纤维'/ 
&OBST ID='A01.stl', XB=0.4,0.5,-0.3,-0.3,-0.4,-0.3, SURF_ID='E-玻璃纤维'/ 
&OBST ID='A01.stl', XB=0.4,0.5,0.3,0.3,-0.4,-0.3, SURF_ID='E-玻璃纤维'/ 
&OBST ID='A01.stl', XB=0.4,0.5,-0.4,-0.4,-0.3,-0.1, SURF_ID='E-玻璃纤维'/ 
&OBST ID='A01.stl', XB=0.4,0.5,0.4,0.4,-0.3,-0.1, SURF_ID='E-玻璃纤维'/ 
&OBST ID='A01.stl', XB=0.4,0.5,-0.5,-0.5,-0.1,0.1, SURF_ID='E-玻璃纤维'/ 
&OBST ID='A01.stl', XB=0.4,0.5,0.5,0.5,-0.1,0.1, SURF_ID='E-玻璃纤维'/ 
&OBST ID='A01.stl', XB=0.4,0.5,-0.4,-0.4,0.1,0.3, SURF_ID='E-玻璃纤维'/ 
&OBST ID='A01.stl', XB=0.4,0.5,0.4,0.4,0.1,0.3, SURF_ID='E-玻璃纤维'/ 
&OBST ID='A01.stl', XB=0.4,0.5,-0.3,-0.3,0.3,0.4, SURF_ID='E-玻璃纤维'/ 
&OBST ID='A01.stl', XB=0.4,0.5,0.3,0.3,0.3,0.4, SURF_ID='E-玻璃纤维'/ 
&OBST ID='A01.stl', XB=0.4,0.5,-0.2,-0.2,0.4,0.5, SURF_ID='E-玻璃纤维'/ 
&OBST ID='A01.stl', XB=0.4,0.5,0.2,0.2,0.4,0.5, SURF_ID='E-玻璃纤维'/ 
&OBST ID='A01.stl', XB=0.5,0.6,-0.3,-0.3,-0.5,-0.4, SURF_ID='E-玻璃纤维'/ 
&OBST ID='A01.stl', XB=0.5,0.6,0.3,0.3,-0.5,-0.4, SURF_ID='E-玻璃纤维'/ 
&OBST ID='A01.stl', XB=0.5,0.6,-0.4,-0.4,-0.4,-0.3, SURF_ID='E-玻璃纤维'/ 
&OBST ID='A01.stl', XB=0.5,0.6,0.4,0.4,-0.4,-0.3, SURF_ID='E-玻璃纤维'/ 
&OBST ID='A01.stl', XB=0.5,0.6,-0.5,-0.5,-0.3,0.3, SURF_ID='E-玻璃纤维'/ 
&OBST ID='A01.stl', XB=0.5,0.6,0.5,0.5,-0.3,0.3, SURF_ID='E-玻璃纤维'/ 
&OBST ID='A01.stl', XB=0.5,0.6,-0.4,-0.4,0.3,0.4, SURF_ID='E-玻璃纤维'/ 
&OBST ID='A01.stl', XB=0.5,0.6,0.4,0.4,0.3,0.4, SURF_ID='E-玻璃纤维'/ 
&OBST ID='A01.stl', XB=0.5,0.6,-0.3,-0.3,0.4,0.5, SURF_ID='E-玻璃纤维'/ 
&OBST ID='A01.stl', XB=0.5,0.6,0.3,0.3,0.4,0.5, SURF_ID='E-玻璃纤维'/ 
&OBST ID='A01.stl', XB=0.5,0.6,-0.1,-0.1,0.5,0.6, SURF_ID='E-玻璃纤维'/ 
&OBST ID='A01.stl', XB=0.5,0.6,0.1,0.1,0.5,0.6, SURF_ID='E-玻璃纤维'/ 
&OBST ID='A01.stl', XB=0.6,0.7,-0.2,-0.2,-0.6,-0.5, SURF_ID='E-玻璃纤维'/ 
&OBST ID='A01.stl', XB=0.6,0.7,0.2,0.2,-0.6,-0.5, SURF_ID='E-玻璃纤维'/ 
&OBST ID='A01.stl', XB=0.6,0.7,-0.5,-0.5,-0.4,-0.2, SURF_ID='E-玻璃纤维'/ 
&OBST ID='A01.stl', XB=0.6,0.7,0.5,0.5,-0.4,-0.2, SURF_ID='E-玻璃纤维'/ 
&OBST ID='A01.stl', XB=0.6,0.7,-0.6,-0.6,-0.2,0.2, SURF_ID='E-玻璃纤维'/ 
&OBST ID='A01.stl', XB=0.6,0.7,0.6,0.6,-0.2,0.2, SURF_ID='E-玻璃纤维'/ 
&OBST ID='A01.stl', XB=0.6,0.7,-0.5,-0.5,0.2,0.4, SURF_ID='E-玻璃纤维'/ 
&OBST ID='A01.stl', XB=0.6,0.7,0.5,0.5,0.2,0.4, SURF_ID='E-玻璃纤维'/ 
&OBST ID='A01.stl', XB=0.6,0.7,-0.4,-0.4,0.4,0.5, SURF_ID='E-玻璃纤维'/ 
&OBST ID='A01.stl', XB=0.6,0.7,0.4,0.4,0.4,0.5, SURF_ID='E-玻璃纤维'/ 
&OBST ID='A01.stl', XB=0.6,0.7,-0.3,-0.3,0.5,0.6, SURF_ID='E-玻璃纤维'/ 
&OBST ID='A01.stl', XB=0.6,0.7,0.3,0.3,0.5,0.6, SURF_ID='E-玻璃纤维'/ 
&OBST ID='A01.stl', XB=0.6,0.8,-0.4,-0.4,-0.5,-0.4, SURF_ID='E-玻璃纤维'/ 
&OBST ID='A01.stl', XB=0.6,0.8,0.4,0.4,-0.5,-0.4, SURF_ID='E-玻璃纤维'/ 
&OBST ID='A01.stl', XB=0.7,0.8,-0.1,-0.1,-0.7,-0.6, SURF_ID='E-玻璃纤维'/ 
&OBST ID='A01.stl', XB=0.7,0.8,0.1,0.1,-0.7,-0.6, SURF_ID='E-玻璃纤维'/ 
&OBST ID='A01.stl', XB=0.7,0.8,-0.3,-0.3,-0.6,-0.5, SURF_ID='E-玻璃纤维'/ 
&OBST ID='A01.stl', XB=0.7,0.8,0.3,0.3,-0.6,-0.5, SURF_ID='E-玻璃纤维'/ 
&OBST ID='A01.stl', XB=0.7,0.8,-0.5,-0.5,-0.4,-0.3, SURF_ID='E-玻璃纤维'/ 
&OBST ID='A01.stl', XB=0.7,0.8,0.5,0.5,-0.4,-0.3, SURF_ID='E-玻璃纤维'/ 
&OBST ID='A01.stl', XB=0.7,0.8,-0.6,-0.6,-0.3,0.4, SURF_ID='E-玻璃纤维'/ 
&OBST ID='A01.stl', XB=0.7,0.8,0.6,0.6,-0.3,0.4, SURF_ID='E-玻璃纤维'/ 
&OBST ID='A01.stl', XB=0.7,0.8,-0.5,-0.5,0.4,0.5, SURF_ID='E-玻璃纤维'/ 
&OBST ID='A01.stl', XB=0.7,0.8,0.5,0.5,0.4,0.5, SURF_ID='E-玻璃纤维'/ 
&OBST ID='A01.stl', XB=0.7,0.8,-0.4,-0.4,0.5,0.6, SURF_ID='E-玻璃纤维'/ 
&OBST ID='A01.stl', XB=0.7,0.8,0.4,0.4,0.5,0.6, SURF_ID='E-玻璃纤维'/ 
&OBST ID='A01.stl', XB=0.7,0.8,-0.2,-0.2,0.6,0.7, SURF_ID='E-玻璃纤维'/ 
&OBST ID='A01.stl', XB=0.7,0.8,0.2,0.2,0.6,0.7, SURF_ID='E-玻璃纤维'/ 
&OBST ID='A01.stl', XB=0.7,0.8,-0.1,-0.1,0.7,0.9, SURF_ID='E-玻璃纤维'/ 